42
Properties=species:S:1:pos:R:3 1sa1msa2tma_16.log=T Energy:=T -1075139.1813329=T pbc="F F F"
S       -1.18445000      -0.33819000      -0.98807000
O        0.01468000       0.01247000      -1.74972000
O       -2.32090000      -0.88785000      -1.73163000
O       -0.79808000      -1.49396000       0.04399000
O       -1.63420000       0.81965000      -0.11734000
H        0.08778000      -1.28518000       0.48612000
H       -3.03146000       0.47026000       0.34258000
S        2.76643000      -1.37055000       0.47287000
O        1.47861000      -0.95102000       1.12251000
O        3.65225000      -2.13779000       1.34186000
O        3.42113000      -0.16665000      -0.14754000
H        2.55619000       1.10935000      -0.10791000
C        2.30579000      -2.40237000      -0.90934000
H        1.79227000      -3.28303000      -0.52187000
H        1.65067000      -1.82548000      -1.56445000
H        3.22325000      -2.69089000      -1.42298000
N       -4.03909000       0.19317000       0.64257000
C       -4.01380000      -1.25863000       0.95480000
H       -3.72178000      -1.79449000       0.05183000
H       -3.26425000      -1.43752000       1.72595000
H       -5.00324000      -1.57052000       1.29949000
C       -4.37948000       1.00715000       1.82764000
H       -3.67347000       0.77744000       2.62643000
H       -4.29905000       2.06351000       1.56821000
H       -5.39782000       0.77969000       2.15294000
C       -4.91491000       0.48762000      -0.51653000
H       -4.87296000       1.55792000      -0.72240000
H       -4.52468000      -0.06066000      -1.37451000
H       -5.94083000       0.18898000      -0.28570000
N        2.23542000       2.13007000      -0.00536000
C        3.45174000       2.83999000       0.44926000
H        3.77423000       2.40705000       1.39634000
H        4.23942000       2.69607000      -0.29062000
H        3.23243000       3.90391000       0.57032000
C        1.77173000       2.60627000      -1.32958000
H        2.59547000       2.51891000      -2.03939000
H        0.94510000       1.97021000      -1.64991000
H        1.45822000       3.65035000      -1.24514000
C        1.15785000       2.18492000       1.01215000
H        0.26079000       1.71060000       0.61253000
H        1.48934000       1.63858000       1.89526000
H        0.95689000       3.23339000       1.25217000
