7
1ma.log	Energy:  -60139.1412877
H         -0.42655       -1.12107        0.81711
H          0.58861        1.06399       -0.88004
H         -0.94911        1.17133        0.00000
H          0.58861        1.06399        0.88004
H         -0.42655       -1.12107       -0.81711
C          0.04807        0.70440        0.00000
N          0.04807       -0.75480        0.00000
