28
1sa1msa1eda_185.log	Energy: -975702.5852000
S         -1.47333       -1.73502        0.00575
O         -2.88562       -1.96183       -0.08208
O         -0.92261       -0.82027        0.99625
O         -0.71737       -3.11903        0.31536
O         -0.95418       -1.34769       -1.41919
H         -1.15236       -3.83681       -0.16897
H         -0.00359       -1.03883       -1.37163
S          2.28075        0.14188       -0.09747
O          2.40359        1.55585       -0.36394
O          1.56288       -0.69780       -1.07074
O          1.64281       -0.10791        1.33752
H          0.68915       -0.36869        1.25967
C          3.88668       -0.56609        0.15218
H          4.44027       -0.42013       -0.77584
H          4.36575       -0.03506        0.97469
H          3.76736       -1.62507        0.37707
H         -0.87377        1.35853       -0.85087
H          0.04870        2.81827       -1.15402
H          0.09104        2.33884        1.23029
H         -0.84096        3.81652        0.95985
H         -1.99395        1.18051        1.50927
H         -2.17367        2.55683        2.37622
H         -2.86361        2.76413       -0.89729
H         -1.96009        4.00744       -1.44197
C         -0.87382        2.44584       -0.69869
C         -0.84752        2.73047        0.80591
N         -2.01843        2.99410       -1.41367
N         -2.05116        2.19187        1.43925
