39
1sa1msa1dma1tma_05.log	Energy: -1050489.7924046
S          1.32638       -1.56402       -0.89382
O          1.93511       -0.28854       -1.34588
O         -0.04518       -1.72877       -1.71254
O          2.08287       -2.76868       -1.16176
O          0.90125       -1.41190        0.54473
H         -0.68291       -1.59894        0.85005
S         -1.75530        1.45096       -0.44771
O         -0.49858        2.21911       -0.48012
O         -2.16342        1.06400        0.93967
O         -1.76994        0.27079       -1.35482
H         -0.56462       -0.88492       -1.67429
C         -3.03581        2.53579       -1.05217
H         -2.77948        2.81848       -2.07340
H         -3.98363        1.99807       -1.02810
H         -3.07187        3.41242       -0.40503
N         -1.68040       -1.61438        1.19769
C         -1.66089       -2.04108        2.60825
C         -2.51177       -2.45848        0.31454
H         -1.98651       -0.61420        1.13268
H         -1.26241       -3.05473        2.67436
H         -1.01905       -1.36235        3.17039
H         -2.67241       -2.00960        3.01703
H         -2.05894       -3.44751        0.23338
H         -3.51739       -2.53519        0.73286
H         -2.54626       -1.98767       -0.66652
N          2.25870        1.40635        0.69825
C          2.48377        2.75154        0.11575
H          3.07201        2.63635       -0.79512
H          1.51339        3.18206       -0.12661
H          3.02155        3.36921        0.83912
C          1.36302        1.44644        1.88033
H          0.42715        1.92006        1.58803
H          1.17590        0.41727        2.18499
H          1.85973        2.00596        2.67740
C          3.53453        0.71516        1.00897
H          3.30123       -0.28479        1.37530
H          4.11703        0.63130        0.09217
H          4.07747        1.28778        1.76458
H          1.82064        0.82203       -0.05878
