38
1sa1msa1dma1eda_347.log	Energy: -1060535.9499398
S         -0.03132        0.68281        0.64856
O          0.63251       -0.59354        0.99302
O         -1.20687        0.99845        1.46159
O          1.00532        1.85366        0.97166
O         -0.32666        0.76879       -0.81438
H          1.88885        1.60834        0.60374
H         -1.73311        1.43898       -1.03214
S          3.87373       -0.40156       -0.17228
O          4.83535       -0.75184        0.85245
O          3.29918        0.95208       -0.14864
O          2.70397       -1.45655       -0.24441
H          1.87020       -1.12879        0.23782
C          4.60600       -0.65175       -1.77118
H          5.46279        0.01964       -1.83504
H          4.92616       -1.69124       -1.84041
H          3.86391       -0.41424       -2.53228
N         -2.63721        2.00525       -1.11455
C         -2.39819        3.30403       -0.43731
C         -3.76876        1.22860       -0.54453
H         -2.79323        2.15812       -2.10989
H         -2.18510        3.09239        0.61070
H         -1.53126        3.78360       -0.89216
H         -3.28238        3.93618       -0.53412
H         -3.52296        0.98599        0.48940
H         -4.67788        1.83167       -0.59497
H         -3.89657        0.29577       -1.09980
H         -3.80449       -3.73025        0.02357
H         -3.01922       -3.23304       -1.48150
H         -1.58454       -2.71890        0.44423
H         -2.07568       -1.24971       -0.38649
H         -3.16974       -2.21069        2.14786
H         -2.43755       -0.78509        1.82120
H         -5.32986       -2.49966       -1.40034
H         -4.99380       -1.60738       -0.06490
C         -3.48450       -2.85352       -0.56557
C         -2.44760       -2.07225        0.23237
N         -4.60048       -1.97695       -0.92752
N         -3.05334       -1.49697        1.43521
