32
1sa1msa1a1eda_78.log	Energy: -1011237.8632097
S          2.95148        0.01084        0.04424
O          2.57681        1.20346        0.83479
O          3.26969       -1.17160        0.85004
O          1.98486       -0.25659       -1.04665
O          4.29990        0.41042       -0.76529
H          5.01489        0.52091       -0.12372
S         -2.17153       -1.26717       -0.11227
O         -1.84795       -2.59470       -0.66947
O         -2.34262       -0.18976       -1.10869
O         -1.16508       -0.86080        0.94180
C         -3.72227       -1.42120        0.75407
H         -4.48624       -1.69447        0.02578
H         -3.61885       -2.19695        1.51273
H         -3.94939       -0.45940        1.21602
N          0.84564       -2.50637        0.03997
H          1.24754       -1.81621       -0.62874
H          1.61872       -2.95269        0.52906
H          0.25027       -1.94494        0.68395
H          0.20078       -3.14742       -0.42854
H         -0.66533        3.15064        1.38531
H          0.23115        3.63767       -0.07337
H         -2.10335        4.29353       -0.25964
H         -1.73087        3.07945       -1.48296
H         -3.84021        2.87591        0.04198
H         -2.98155        1.51974       -0.30924
H          0.89908        1.47956        0.51139
H         -0.66453        0.86676        0.60927
C         -0.55221        2.98073        0.31311
C         -1.87252        3.23313       -0.40086
N         -0.07324        1.58495        0.14477
N         -2.94273        2.42301        0.16183
H         -0.03177        1.29867       -0.83679
