33
1sa1msa1ma1dma_39.log	Energy: -1001158.1327633
S          1.21890        0.97643        0.29246
O          1.50814       -0.18077        1.14657
O          0.43886        0.56608       -0.93161
O          0.53907        2.10768        0.95980
O          2.58387        1.56704       -0.22624
H          3.17392        0.78517       -0.55016
S         -1.72165       -1.96478       -0.08771
O         -2.54594       -3.06558       -0.53604
O         -2.38635       -0.68286        0.21216
O         -0.60339       -1.72017       -1.16475
H         -0.14595       -0.80575       -1.04724
C         -0.81437       -2.43931        1.36476
H         -1.53949       -2.55813        2.17073
H         -0.31961       -3.38658        1.14983
H         -0.08389       -1.65672        1.58682
N          3.99201       -0.54834       -0.91509
H          3.29546       -1.20903       -1.24947
C          4.61983       -1.04812        0.31788
H          5.10627       -2.02177        0.19007
H          5.36370       -0.32290        0.65466
H          3.84759       -1.12278        1.08561
H          4.67594       -0.43528       -1.65669
N         -1.96842        2.02482       -0.03560
C         -2.99603        2.56797        0.87378
C         -1.97996        2.59467       -1.39915
H         -1.01102        2.15850        0.38176
H         -3.98631        2.38084        0.45596
H         -2.90400        2.06889        1.83811
H         -2.83819        3.64040        0.99706
H         -2.93997        2.38401       -1.87316
H         -1.82208        3.67235       -1.33500
H         -1.16644        2.13082       -1.95642
H         -2.07791        0.99330       -0.08644
