41
1sa1msa1tma1eda_30.log	Energy: -1085220.6457448
S          2.67587        1.03354        0.22825
O          3.53363        0.00882        0.83063
O          1.64217        0.50352       -0.68168
O          2.13847        2.01956        1.19083
O          3.62790        1.88424       -0.79212
H          4.39226        2.19695       -0.28980
S         -2.26980       -0.98081        0.40288
O         -2.50095        0.14347        1.35190
O         -2.07508       -2.29177        1.04355
O         -1.16762       -0.65090       -0.56175
C         -3.75511       -1.08651       -0.58354
H         -4.57907       -1.34527        0.08221
H         -3.93346       -0.11669       -1.05170
H         -3.61392       -1.86243       -1.33658
H         -1.13797        3.90696        0.28808
H         -0.14682        3.26943       -1.04187
H         -2.40649        3.46272       -1.88505
H         -2.05203        1.75221       -1.68997
H         -3.36997        1.79252        0.35148
H         -3.75303        3.37918        0.07588
H          0.36709        2.11788        0.98001
H         -1.25157        1.56840        1.13156
C         -0.97072        3.04235       -0.36023
C         -2.24007        2.68027       -1.13762
N         -0.52286        1.91132        0.48697
N         -3.45532        2.51458       -0.36054
H         -0.31204        1.08745       -0.10336
N          1.09557       -2.37577       -0.42790
C          1.28675       -2.52170        1.04271
H          1.95816       -1.73091        1.37990
H          0.30800       -2.44793        1.51910
H          1.73264       -3.49997        1.23562
C          0.16956       -3.41065       -0.95774
H         -0.76281       -3.36064       -0.39474
H         -0.01313       -3.20621       -2.01296
H          0.64175       -4.38840       -0.83992
C          2.39303       -2.38430       -1.15294
H          2.21154       -2.13345       -2.19786
H          3.05520       -1.64716       -0.70164
H          2.82239       -3.38549       -1.07197
H          0.63569       -1.45601       -0.56905
