27
1sa1msa1a1ma_24.log	Energy: -951837.0840999
S          1.59809        0.15477        0.27273
O          1.09896       -1.15291       -0.25352
O          0.72077        0.73659        1.29394
O          2.97153       -0.16654        0.97638
O          1.87584        1.10509       -0.84077
H          3.48102       -0.84274        0.40677
H          0.57118        2.07287       -0.98908
S         -2.42883       -0.79342       -0.10477
O         -3.71916       -1.38184       -0.38550
O         -2.22676        0.61021       -0.50566
O         -1.33880       -1.69838       -0.78665
H         -0.38106       -1.41416       -0.58622
C         -2.05875       -0.91056        1.63014
H         -2.81702       -0.32781        2.15483
H         -2.11780       -1.96165        1.91252
H         -1.06131       -0.49525        1.79781
N          4.00827       -2.01854       -0.62384
H          4.50074       -1.67200       -1.44040
H          3.10476       -2.37704       -0.92630
H          4.54375       -2.78233       -0.22581
N         -0.36339        2.56593       -0.91289
H         -0.58518        3.01267       -1.79966
C         -0.34832        3.52762        0.21459
H         -1.33664        3.97270        0.32901
H         -0.07268        2.96865        1.10830
H          0.39480        4.30031        0.01821
H         -1.06339        1.81249       -0.74447
