20
1sa1msa1a_13.log	Energy: -891670.7654385
S         -1.42195       -0.38869       -0.13320
O         -0.56474       -1.24975       -0.94138
O         -1.39629        1.03676       -0.43562
O         -2.86307       -0.92831       -0.17387
O         -1.06519       -0.60768        1.39489
H         -0.09606       -0.42402        1.50607
S          2.45111        0.13208        0.14007
O          3.87452        0.08965        0.36563
O          1.54576       -0.03403        1.28524
O          2.11187       -0.97791       -0.94436
H          1.13596       -1.15303       -0.97580
C          2.01125        1.64990       -0.67684
H          2.27105        2.46052        0.00522
H          2.59208        1.71753       -1.59649
H          0.93726        1.64450       -0.87531
N         -4.44198        1.05409        0.14141
H         -3.56764       -0.13446       -0.02357
H         -3.82102        1.84231       -0.03053
H         -5.20479        1.09492       -0.52759
H         -4.82984        1.14984        1.07502
