30
1sa1msa1a1dma_97.log	Energy: -976491.0965054
S         -2.05769       -0.40868       -0.55117
O         -1.11564       -0.28332       -1.64449
O         -3.33210       -1.06872       -0.74410
O         -1.37324       -1.11752        0.67570
O         -2.31330        1.06386       -0.01690
H         -0.41013       -0.79275        0.79792
H         -3.10633        1.03232        0.63356
S          2.17392       -1.04449        0.30463
O          1.01622       -0.29509        0.91894
O          3.09026       -1.61999        1.27948
O          2.83415       -0.14372       -0.70315
H          2.28129        1.25463       -0.66433
C          1.45257       -2.36707       -0.64793
H          0.93571       -3.03851        0.03871
H          0.75501       -1.93609       -1.36775
H          2.26701       -2.88896       -1.15090
N         -4.40791        0.67423        1.55279
H         -4.15774        0.33421        2.47604
H         -4.78741       -0.11007        1.02583
H         -5.13368        1.37514        1.65647
N          1.97383        2.28894       -0.54954
C          2.31522        2.68852        0.83632
C          0.53327        2.43015       -0.87192
H          2.53195        2.82481       -1.21249
H          1.76484        2.02901        1.50833
H          3.38500        2.54530        0.98970
H          2.04004        3.73180        1.00182
H         -0.03938        1.89657       -0.11625
H          0.26101        3.48738       -0.87826
H          0.33447        1.97016       -1.83912
