30
1sa1msa2ma_41.log	Energy: -976491.7218563
S         -1.53485       -1.41739        0.26916
O         -1.57403       -0.55219        1.45673
O         -2.81392       -1.85924       -0.26587
O         -0.64144       -0.82451       -0.78261
O         -0.75408       -2.75030        0.77558
H         -1.13499       -3.50318        0.30416
S          2.58570        0.05024       -0.13400
O          2.57093       -0.29917        1.27572
O          2.05987        1.38153       -0.48033
O          1.87427       -1.04122       -1.01258
H          0.85649       -1.01361       -0.89164
C          4.23055       -0.09602       -0.78226
H          4.84688        0.62297       -0.24198
H          4.57671       -1.11314       -0.60018
H          4.20736        0.13015       -1.84755
N         -2.11559        1.74595       -1.50606
H         -2.03182        2.37333       -2.29942
C         -3.52799        1.53507       -1.15685
H         -4.12858        1.15200       -1.98954
H         -3.58870        0.80996       -0.34235
H         -3.96356        2.47792       -0.81488
H         -1.69185        0.85700       -1.77371
N         -0.46806        1.88843        0.74718
H          0.49252        1.78030        0.38388
H         -1.10139        2.00124       -0.09993
C         -0.57954        2.99856        1.70947
H         -1.60217        3.04695        2.08425
H          0.10412        2.82977        2.54152
H         -0.32674        3.93661        1.21443
H         -0.75316        0.98054        1.16727
