33
1sa1msa1ma1dma_90.log	Energy: -1001151.3750385
S          1.12563        0.26486       -0.18328
O          1.50420       -0.98416       -0.84030
O         -0.06656        0.14140        0.72558
O          2.30483        0.69445        0.76858
O          0.88913        1.40657       -1.11099
H          3.15033        0.09167        0.56145
H         -0.51282        2.08116       -0.77643
S         -3.16192       -0.84852       -0.11305
O         -3.16482       -1.15134       -1.53224
O         -3.27122        0.57842        0.25497
O         -1.94138       -1.48505        0.62443
H         -1.10472       -0.85970        0.62814
C         -4.48957       -1.71758        0.68358
H         -4.35414       -2.78234        0.49446
H         -4.45845       -1.49985        1.75037
H         -5.41758       -1.36183        0.23547
N         -1.40639        2.51977       -0.39523
H         -1.77715        3.17456       -1.07967
C         -1.11065        3.17309        0.90112
H         -2.02250        3.60572        1.31296
H         -0.72263        2.40329        1.56740
H         -0.35504        3.94408        0.75130
H         -2.10041        1.75791       -0.25177
N          4.26054       -0.84571        0.12513
C          5.19322       -1.25991        1.16978
C          4.91401       -0.27628       -1.05431
H          3.67876       -1.62815       -0.16891
H          5.72251       -0.38040        1.54739
H          4.63794       -1.70642        1.99748
H          5.93623       -1.98331        0.80626
H          5.42282        0.64967       -0.77142
H          5.65083       -0.96261       -1.49338
H          4.15222       -0.04156       -1.80041
