42
1sa1msa2tma_37.log	Energy: -1075130.3820877
S         -0.57873        2.13492       -0.18654
O         -0.93393        1.73584       -1.54945
O         -1.64174        1.81996        0.80704
O          0.75876        1.72971        0.26266
O         -0.46380        3.75671       -0.17986
H         -1.28862        4.11570       -0.53406
S         -2.31540       -1.46411       -0.15272
O         -3.03518       -2.68702        0.13762
O         -0.90946       -1.36643        0.25569
O         -3.11588       -0.27221        0.50211
H         -2.54001        0.55772        0.59721
C         -2.39909       -1.11789       -1.89347
H         -3.45005       -1.11520       -2.18284
H         -1.92932       -0.14670       -2.06598
H         -1.86051       -1.91689       -2.40508
N          1.38814       -0.46149        1.80310
C          2.65538        0.27456        2.04014
H          3.36719       -0.03140        1.27476
H          2.45256        1.34040        1.94703
H          3.02386        0.02803        3.03810
C          0.33762       -0.06755        2.78029
H          0.15479        1.00057        2.67443
H         -0.57261       -0.61371        2.54000
H          0.68913       -0.31181        3.78496
C          1.60524       -1.92930        1.78584
H          0.65798       -2.41361        1.55600
H          2.33556       -2.14895        1.00877
H          1.97755       -2.23776        2.76524
H          1.05676       -0.16119        0.87049
N          2.66888       -0.70794       -1.15387
C          3.25495        0.58595       -1.48458
H          2.53988        1.37696       -1.24982
H          4.16245        0.74642       -0.89174
H          3.53267        0.65365       -2.55248
C          3.62898       -1.77795       -1.37128
H          4.50410       -1.63643       -0.72721
H          3.17395       -2.74490       -1.13121
H          3.98074       -1.82368       -2.41885
C          1.45942       -0.93590       -1.93795
H          0.97702       -1.86138       -1.61001
H          0.75678       -0.11372       -1.78542
H          1.67978       -1.01304       -3.01910
