30
1sa1msa2ma_59.log	Energy: -976491.9212537
S         -1.44894        0.24803        0.94360
O         -0.43243       -0.84855        1.05326
O         -2.73618       -0.11487        1.51284
O         -0.87372        1.54489        1.36949
O         -1.65850        0.46363       -0.64187
H         -2.30581       -0.25828       -0.98174
S          2.66150       -0.82403       -0.15323
O          4.10042       -0.84933       -0.01019
O          2.09401        0.03673       -1.20983
O          2.03319       -0.42335        1.22592
H          1.00144       -0.52777        1.21278
C          2.03664       -2.46509       -0.43632
H          2.38815       -2.78278       -1.41834
H          2.43018       -3.11327        0.34652
H          0.94701       -2.41914       -0.39761
N         -3.44856       -1.37225       -1.26617
H         -3.41879       -1.85875       -2.15665
C         -4.75135       -0.71965       -1.06022
H         -5.59326       -1.42029       -1.09079
H         -4.73092       -0.22459       -0.08767
H         -4.89605        0.03986       -1.83218
H         -3.29293       -2.06459       -0.53784
N          0.57202        2.27432       -0.75493
H          0.06769        2.11273        0.16049
H          1.15083        1.42353       -0.92790
C          1.40070        3.49619       -0.75169
H          1.89099        3.61175       -1.71819
H          0.77307        4.36244       -0.54308
H          2.15537        3.39702        0.02795
H         -0.16237        2.28171       -1.46173
