38
1sa1msa1dma1eda_54.log	Energy: -1060563.1049164
S         -2.88237        0.08916       -0.25295
O         -2.66130        1.02898       -1.36967
O         -2.86189       -1.33141       -0.67098
O         -2.04736        0.35994        0.92305
O         -4.39236        0.37037        0.28199
H         -5.00241        0.22974       -0.45457
S          2.59230       -0.57177       -0.15293
O          2.59700       -1.65301        0.84497
O          2.92797        0.77643        0.34077
O          1.27996       -0.56070       -0.91618
C          3.82281       -0.98062       -1.38053
H          4.79208       -1.00752       -0.88196
H          3.58164       -1.95598       -1.80327
H          3.80996       -0.21180       -2.15307
N         -0.46641       -2.30971        0.35057
C         -0.41708       -2.21278        1.82859
C         -0.03571       -3.61861       -0.18088
H         -1.42132       -2.07104        0.00853
H          0.62081       -2.32391        2.14311
H         -0.80560       -1.23452        2.10949
H         -1.04497       -2.99770        2.25393
H          0.99975       -3.78721        0.11803
H         -0.68234       -4.40187        0.21772
H         -0.11116       -3.59489       -1.26819
H          0.16403       -1.58766       -0.06193
H          1.82255        2.51567       -1.03314
H          0.49361        3.54418       -1.62524
H          1.79558        4.46694        0.37919
H          0.04687        4.35882        0.63837
H          1.92328        2.28380        1.56459
H          1.03346        3.32026        2.51395
H          0.36982        0.90119       -0.82187
H         -0.25192        1.72679        0.45707
C          0.84857        2.94192       -0.78786
C          0.95758        3.76559        0.49827
N         -0.08000        1.80441       -0.55974
N          1.07699        2.84793        1.62085
H         -0.99977        1.85232       -1.02557
