27
1sa1msa1a1ma_150.log	Energy: -951822.9235707
S         -1.61968       -1.27529        0.06576
O         -0.97693       -0.27728       -0.80997
O         -0.95288       -2.57064        0.14547
O         -1.97767       -0.69449        1.38732
O         -3.04938       -1.53489       -0.68740
H         -3.42125       -2.35379       -0.33390
S          2.90754        0.12106        0.02897
O          2.06719        0.91176        0.91781
O          4.24951       -0.23676        0.44989
O          3.04766        0.98455       -1.34053
H          3.98480        1.00885       -1.58185
C          2.00909       -1.29414       -0.53360
H          1.75586       -1.89333        0.34265
H          1.08985       -0.94869       -1.01252
H          2.65088       -1.85126       -1.21563
N         -0.64354        1.66712        1.47638
H         -1.13648        2.15309        0.65789
H         -1.15389        0.75955        1.61486
H          0.32678        1.44484        1.21538
H         -0.65556        2.22975        2.32125
N         -2.08550        2.43428       -0.73884
H         -1.98791        3.25807       -1.32276
C         -3.49613        2.18228       -0.41313
H         -4.13092        2.06190       -1.29821
H         -3.56067        1.26298        0.17470
H         -3.88744        3.00720        0.18881
H         -1.71440        1.63168       -1.24940
