35
1sa1msa1ma1eda_250.log	Energy: -1035882.1362603
S          0.07369        1.98607        0.56534
O         -1.33790        2.33456        0.29150
O          0.90978        3.03570        1.10153
O          0.03473        0.85659        1.74178
O          0.67068        1.25002       -0.59620
H         -0.59501        0.16154        1.44989
H          1.96469        0.39531        0.04694
S         -2.52015       -0.78406       -0.52907
O         -3.58076       -1.74892       -0.70305
O         -1.50526       -1.05755        0.50993
O         -3.16419        0.61829       -0.24797
H         -2.45771        1.31660       -0.01759
C         -1.65160       -0.54605       -2.06309
H         -1.20579       -1.50450       -2.33309
H         -2.37945       -0.23614       -2.81280
H         -0.88201        0.21320       -1.90055
N          1.02050       -2.39639        1.33285
H          0.11912       -2.18771        0.90005
C          0.88023       -2.32489        2.79672
H          0.10049       -2.98738        3.18686
H          1.83070       -2.58821        3.26840
H          0.63534       -1.29817        3.07887
H          1.26873       -3.34038        1.05223
H          2.10248       -1.59616       -1.74876
H          3.71732       -1.57389       -2.46189
H          4.05837       -1.70955       -0.10338
H          4.43861       -0.03092       -0.57522
H          2.02180       -1.11512        0.81603
H          3.04365        0.15373        1.29329
H          2.63253        0.16510       -3.52523
H          2.02529        0.81442       -2.14231
C          3.01376       -0.98366       -1.86740
C          3.64487       -0.77586       -0.49455
N          2.80335        0.29017       -2.53534
N          2.62814       -0.29530        0.47928
