27
1sa1msa1a1ma_97.log	Energy: -951830.7075495
S          1.48656        0.78812       -0.25803
O          2.68338        0.77030       -1.08932
O          0.23192        0.36385       -0.96082
O          1.67427       -0.28149        0.89434
O          1.22630        2.10048        0.40414
H          2.67007       -0.56785        0.93935
H         -0.28279        2.38304        0.43484
S         -2.68987       -0.57568        0.01235
O         -3.10043        0.38472       -1.01174
O         -2.46516        0.00268        1.34597
O         -1.44676       -1.39814       -0.45174
H         -0.65485       -0.74984       -0.65333
C         -3.88736       -1.87477        0.14689
H         -4.81545       -1.41466        0.48656
H         -4.01376       -2.32706       -0.83628
H         -3.52495       -2.60110        0.87372
N         -1.36150        2.45381        0.40551
H         -1.68931        3.38337        0.65027
H         -1.76111        1.74048        1.03715
H         -1.67893        2.19583       -0.53297
N          4.19582       -0.95562        0.78846
H          4.58465       -0.08899        0.42510
C          4.30577       -2.01388       -0.22517
H          5.34223       -2.24615       -0.49511
H          3.82584       -2.92059        0.15001
H          3.77158       -1.68285       -1.11777
H          4.70103       -1.19732        1.63471
