40
1sa1msa2eda_182.log	Energy: -1095281.1070572
S         -0.60412       -1.17715        0.54327
O         -1.14149       -0.35030        1.63468
O          0.66295       -1.87384        0.88404
O         -1.62660       -2.33496        0.25718
O         -0.46408       -0.39479       -0.72454
H         -2.59995       -1.98053        0.28588
H          0.42508        0.94522       -0.63791
S          3.45864       -0.25713       -0.35167
O          3.11129        0.47057        0.86957
O          3.20782        0.46351       -1.60463
O          2.78852       -1.66123       -0.37427
H          1.86850       -1.71426        0.13567
C          5.17268       -0.71752       -0.31038
H          5.35693       -1.26492        0.61341
H          5.38138       -1.33548       -1.18341
H          5.75369        0.20456       -0.34099
H         -5.18584        0.36834        0.57688
H         -3.47829        0.39212        1.08512
H         -3.76460        1.60599       -1.04192
H         -2.75088        0.17115       -1.25827
H         -5.52818        0.46093       -2.13999
H         -4.22987       -0.09212       -2.97382
H         -4.52645       -1.83736        1.19525
H         -4.63130       -1.80831       -0.45080
C         -4.17518        0.00723        0.33509
C         -3.77236        0.50495       -1.04958
N         -4.10620       -1.46105        0.35127
N         -4.66468       -0.06454       -2.06003
H          0.58177        3.91630       -0.37310
H         -0.49329        3.02419       -1.48175
H         -1.60921        3.68759        0.72172
H         -1.64293        1.95158        0.38204
H         -0.42273        3.17102        2.59971
H         -0.47343        1.56013        2.19747
H          1.70402        1.88437       -1.18566
H          1.38358        1.79141        0.43684
C          0.00743        2.99681       -0.51109
C         -0.98670        2.79050        0.63788
N          0.94842        1.85694       -0.49556
N         -0.25936        2.49766        1.86492
