30
1sa1msa1a1dma_58.log	Energy: -976495.9879668
S          1.76314       -1.40282       -0.00396
O          2.87603       -0.52144       -0.42043
O          1.59263       -1.59978        1.42609
O          0.51782       -0.98552       -0.71596
O          2.12995       -2.87759       -0.56570
H          2.39097       -2.79230       -1.49267
S         -2.63414        0.04575       -0.06374
O         -2.30910        0.84317       -1.24066
O         -2.40799        0.66357        1.24244
O         -1.92919       -1.36048       -0.13640
H         -0.93066       -1.26874       -0.32970
C         -4.32634       -0.48560       -0.14743
H         -4.94121        0.41130       -0.06810
H         -4.48380       -0.98188       -1.10437
H         -4.51722       -1.16146        0.68564
N          0.44162        1.19005        2.08099
H          0.80782        0.24452        2.20988
H         -0.56543        1.09449        1.93396
H          0.58165        1.69703        2.94896
N          1.65164        1.97417       -0.27053
C          2.66598        3.01167       -0.01406
C          0.65009        2.33198       -1.29631
H          2.13171        1.08816       -0.52608
H          2.17540        3.91325        0.35757
H          3.36828        2.63963        0.73274
H          3.20229        3.24011       -0.93691
H          0.11776        3.22976       -0.97685
H          1.15322        2.51749       -2.24728
H         -0.05978        1.51159       -1.40097
H          1.15255        1.73669        0.65589
