35
1sa1msa1ma1eda_160.log	Energy: -1035888.5783415
S         -2.18653       -0.80564       -0.29056
O         -1.74265        0.02435       -1.44148
O         -1.57078       -2.14795       -0.30541
O         -2.10359       -0.11889        0.99839
O         -3.77591       -1.02198       -0.51606
H         -3.90970       -1.42464       -1.38495
S          0.52825        2.38196        0.05303
O          1.43572        3.48261       -0.18905
O          1.00367        1.28980        0.91504
O          0.11416        1.81478       -1.36078
H         -0.58470        1.08306       -1.32361
C         -1.00676        2.97189        0.72765
H         -0.77695        3.42527        1.69265
H         -1.41087        3.71329        0.03847
H         -1.67724        2.11726        0.84922
N          0.52808       -1.42365        1.48116
H          0.40405       -0.42318        1.25802
H         -0.06147       -1.92567        0.79830
C          0.12286       -1.71354        2.86913
H          0.27085       -2.77352        3.07607
H          0.72946       -1.11581        3.54965
H         -0.92938       -1.45301        2.98046
H          1.53836       -1.59365        1.28040
H          3.98795       -0.79167       -1.37896
H          4.29102       -2.34703       -0.60109
H          2.59821       -2.51811       -2.39478
H          1.96659       -3.01136       -0.82106
H          1.44724       -0.37035       -2.00857
H          0.35559       -1.56333       -1.74462
H          4.05284       -0.86574        1.14446
H          2.76725       -0.09872        0.49295
C          3.54419       -1.55635       -0.72359
C          2.30884       -2.14434       -1.39976
N          3.20949       -1.01191        0.59991
N          1.23011       -1.16613       -1.41653
