28
1sa1msa1eda_70.log	Energy: -975732.0722339
S          0.58512        1.36254        0.22192
O          0.35538        0.16358        1.08456
O         -0.44807        2.37538        0.35130
O          1.98514        1.83551        0.31527
O          0.55232        0.78094       -1.29460
H         -0.30110        0.29777       -1.41109
S         -2.77564       -0.63448       -0.14694
O         -3.83548       -1.61297       -0.23054
O         -1.77746       -0.59304       -1.22735
O         -2.02516       -0.85587        1.22794
H         -1.11245       -0.42366        1.21868
C         -3.46585        0.99496        0.01999
H         -3.99778        1.21089       -0.90743
H         -4.15326        0.98168        0.86565
H         -2.64733        1.70162        0.17669
H          4.73247       -1.56524       -0.56193
H          4.77830       -0.22590        0.61722
H          3.52435       -2.32531        1.43993
H          2.57778       -0.83193        1.49621
H          2.04769       -3.09791       -0.15391
H          1.10650       -1.78128        0.19165
H          4.01136        0.35490       -1.73717
H          2.64820       -0.56256       -1.35996
C          4.12847       -0.84719       -0.00142
C          3.04577       -1.55686        0.82465
N          3.42080        0.01647       -0.98213
N          2.03428       -2.08944       -0.08216
H          2.94439        0.83505       -0.49601
