40
1sa1msa2eda_151.log	Energy: -1095286.5929144
S         -0.79503        1.75732       -0.91783
O         -1.21844        0.43886       -1.74382
O          0.25387        2.44756       -1.67400
O         -2.09267        2.46548       -0.82030
O         -0.31604        1.28046        0.40574
H         -3.17703        1.39082       -0.26916
H          1.46029        0.87713        0.23533
S          0.59203       -2.27262       -0.29519
O         -0.81764       -2.43752        0.08579
O          1.51983       -1.89653        0.78801
O          0.75095       -1.32699       -1.47478
H         -0.49822       -0.25110       -1.69491
C          1.14533       -3.84978       -0.92758
H          0.49932       -4.13193       -1.75913
H          2.17882       -3.74690       -1.25878
H          1.07189       -4.57808       -0.11932
H         -4.15285       -1.35507        0.45584
H         -2.60317       -0.93374       -0.32906
H         -2.31078       -1.45940        2.11013
H         -1.80014        0.16819        1.67752
H         -4.20208       -0.53721        3.18910
H         -3.16394        0.70450        3.41075
H         -4.61550        0.62705       -0.67254
H         -4.33364        1.05318        0.93176
C         -3.33069       -0.63433        0.42290
C         -2.67382       -0.47909        1.78913
N         -3.91327        0.69456        0.05968
N         -3.63552        0.15129        2.70560
H          3.08073        1.77114        1.86160
H          3.96654        2.59154        0.57066
H          4.30455        0.43525       -0.60739
H          3.47828       -0.43801        0.70331
H          2.17002        1.55467       -1.06449
H          1.89254       -0.09337       -0.98800
H          5.56004        2.20056        2.20426
H          5.13652        0.63395        2.41239
C          3.89697        1.65257        1.13112
C          3.54966        0.51663        0.17705
N          5.19685        1.38252        1.73016
N          2.22937        0.73664       -0.44977
