36
1sa1msa2dma_194.log	Energy: -1025801.3520812
S         -1.26304        0.14656       -1.27058
O          0.07578        0.33915       -1.85435
O         -2.39601        0.20981       -2.17172
O         -1.30630       -1.36033       -0.67760
O         -1.43204        1.01657       -0.05107
H         -0.47375       -1.52138       -0.16323
H         -2.58551        0.49846        0.76862
S          2.31228       -1.46956        0.24375
O          3.09484       -2.68528        0.26242
O          0.92842       -1.51763        0.75498
O          2.27575       -0.93680       -1.24481
H          1.43791       -0.42378       -1.45172
C          3.16048       -0.18334        1.11667
H          3.22117       -0.49199        2.16146
H          4.15787       -0.10029        0.68359
H          2.58098        0.74586        0.99620
N         -3.38446        0.03235        1.34050
C         -2.76939       -0.91796        2.29810
C         -4.33366       -0.60192        0.38874
H         -3.85717        0.77922        1.84761
H         -2.21088       -1.65543        1.72258
H         -2.08229       -0.37195        2.94427
H         -3.54647       -1.40456        2.89012
H         -3.79841       -1.38580       -0.14669
H         -5.18091       -1.01678        0.93757
H         -4.66206        0.14800       -0.33004
N          1.31639        2.39071        0.48443
C          1.88501        2.97519       -0.72028
C          1.18211        3.34851        1.56688
H          0.40806        1.98598        0.27083
H          2.93186        3.24765       -0.53985
H          1.85299        2.24146       -1.52816
H          1.35296        3.88122       -1.05711
H          2.17422        3.69096        1.88474
H          0.59406        4.24264        1.29355
H          0.70319        2.87038        2.42691
