35
1sa1msa1ma1eda_118.log	Energy: -1035888.7459619
S         -2.66156       -0.11951       -0.22162
O         -2.16352       -0.69759        1.00677
O         -2.09913        1.30856       -0.45687
O         -2.59496       -0.90362       -1.44257
O         -4.19870        0.24139        0.06918
H         -4.62318        0.49160       -0.76377
S          1.31639        1.81857        0.10243
O          2.68091        1.39444       -0.23955
O          0.87309        1.46136        1.46785
O          0.32331        1.33818       -0.93669
H         -1.05583        1.31996       -0.64089
C          1.26739        3.59759        0.00284
H          1.97665        3.99206        0.73076
H          1.54939        3.88742       -1.00943
H          0.25388        3.92614        0.23468
N          0.62966       -1.33830        1.61138
H          1.63471       -1.52384        1.41091
H          0.54006       -0.31797        1.75578
C          0.05299       -2.14015        2.70076
H         -1.01102       -1.91935        2.77282
H          0.19220       -3.19951        2.48081
H          0.54969       -1.89689        3.64090
H          0.21297       -1.53945        0.66239
H          2.71001       -0.72753       -1.72586
H          3.62987       -2.22802       -1.76069
H          1.50723       -2.74428       -2.60329
H          1.55033       -3.45377       -0.98435
H          0.36051       -0.80156       -1.46663
H         -0.52511       -2.17044       -1.49153
H          3.89986       -2.06822        0.45542
H          3.33623       -0.52979        0.31412
C          2.80214       -1.71349       -1.25762
C          1.52208       -2.50203       -1.53021
N          3.10117       -1.51201        0.17300
N          0.32613       -1.76036       -1.11934
