32
1sa1msa1a1eda_327.log	Energy: -1011206.6994140
S         -1.61623       -0.74130        0.38512
O         -0.56833       -0.86479        1.39264
O         -2.69061        0.20543        0.59732
O         -0.96079       -0.35533       -0.99663
O         -2.20142       -2.16617        0.16385
H         -0.03678       -0.71920       -1.07279
H         -3.15965       -2.09195       -0.26839
S          2.59654       -0.78817       -0.14607
O          3.25302        0.43753       -0.54317
O          1.50776       -1.30525       -0.99140
O          2.06188       -0.66661        1.33920
H          1.06647       -0.72286        1.37303
C          3.80765       -2.07082        0.03643
H          4.26952       -2.21547       -0.94068
H          4.54516       -1.73273        0.76427
H          3.30554       -2.97718        0.37259
N         -4.56234       -1.81139       -0.83089
H         -4.78648       -0.88920       -0.46293
H         -5.28134       -2.46122       -0.52885
H         -4.58706       -1.75828       -1.84472
H          0.38616        1.60757        0.53655
H          1.52575        2.90560        0.89221
H         -0.68341        3.49106        1.71094
H         -0.22655        4.58272        0.38622
H         -2.09162        2.32915        0.14448
H         -2.39324        3.91947       -0.10688
H          1.76489        2.16288       -1.38893
H          0.21000        2.62870       -1.70743
C          0.66449        2.64326        0.26818
C         -0.50622        3.55110        0.62480
N          1.02617        2.80796       -1.13048
N         -1.68097        3.20240       -0.17500
