38
1sa1msa1dma1eda_34.log	Energy: -1060563.8864167
S          2.54953       -0.88602        0.02621
O          3.02507        0.16945        0.91982
O          2.45722       -2.22929        0.60168
O          1.30583       -0.49872       -0.71036
O          3.61533       -0.97553       -1.20726
H          4.45817       -1.28086       -0.84536
S         -2.94854        0.31413       -0.16538
O         -3.03300       -1.10115       -0.62448
O         -2.51538        1.26775       -1.19975
O         -2.11291        0.42839        1.07644
C         -4.61058        0.75334        0.31060
H         -4.94306        0.05875        1.08197
H         -4.59796        1.77562        0.68906
H         -5.24296        0.67876       -0.57431
N         -0.67534       -2.34896       -0.07928
C         -0.33558       -3.58122       -0.81937
C         -0.67580       -2.50765        1.39392
H          0.02534       -1.62281       -0.33300
H         -1.05745       -4.36051       -0.57039
H         -0.37442       -3.37004       -1.88809
H          0.67338       -3.88627       -0.53777
H         -1.37929       -3.29755        1.66258
H          0.33559       -2.75770        1.71645
H         -1.00415       -1.56199        1.82720
H         -1.60671       -1.96673       -0.37255
H          0.34153        3.30350        1.61084
H          1.43230        1.89586        1.75235
H          2.66610        3.88673        0.89234
H          2.64474        2.55082       -0.25675
H          1.08061        5.01942       -0.46559
H          1.95291        4.24886       -1.61745
H         -0.75775        1.41138        0.62891
H         -0.25304        2.42835       -0.60485
C          0.96282        2.59344        1.05764
C          2.01742        3.30832        0.22186
N          0.07604        1.82539        0.15599
N          1.35872        4.10748       -0.81038
H          0.58727        1.02450       -0.26983
