26
1sa1msa1dma_17.log	Energy: -940997.9260629
S          2.19154       -0.86480       -0.11110
O          2.87620        0.39129        0.19038
O          0.84997       -0.54590       -0.73394
O          2.93393       -1.90689       -0.79482
O          1.73125       -1.50274        1.32337
H          2.29511       -2.26986        1.48836
S         -2.35559       -0.28358        0.01198
O         -2.20606        0.91256       -0.82976
O         -2.08769       -0.10054        1.43137
O         -1.51200       -1.47126       -0.58146
H         -0.52235       -1.22750       -0.62742
C         -3.98048       -0.95334       -0.22108
H         -4.13486       -1.12111       -1.28633
H         -4.04918       -1.88434        0.34081
H         -4.68434       -0.21477        0.16346
N          0.30748        2.04266       -0.12813
C          0.42878        2.17284        1.34495
C          1.14596        2.98542       -0.89817
H          0.57934        1.06346       -0.39222
H          0.14926        3.18586        1.63930
H         -0.24005        1.44447        1.80562
H          1.46292        1.95827        1.61483
H          0.88239        4.01089       -0.63414
H          2.18955        2.78022       -0.65820
H          0.97601        2.81636       -1.96146
H         -0.68163        2.09165       -0.40523
