33
1sa1msa1ma1dma_24.log	Energy: -1001163.8797146
S         -2.26700        0.02428       -0.52045
O         -1.20424       -0.68021       -1.51203
O         -3.54386       -0.55520       -0.87928
O         -1.78110       -0.31887        0.85440
O         -2.13282        1.49013       -0.74327
H         -1.05401       -1.80450        0.78304
H         -1.11113        2.18655        0.21336
S          2.24280       -0.29348       -0.25392
O          1.93934       -1.74238       -0.06133
O          2.55440        0.42568        0.99047
O          1.18243        0.39275       -1.05653
H         -0.30835       -0.25741       -1.40162
C          3.71069       -0.26295       -1.26754
H          3.49497       -0.78183       -2.20152
H          3.96924        0.77919       -1.45652
H          4.50960       -0.76410       -0.72071
N         -0.50981       -2.66469        0.50716
H         -0.92976       -2.98566       -0.36456
C         -0.50218       -3.69962        1.55793
H          0.06935       -4.56397        1.21968
H         -0.03163       -3.28274        2.44782
H         -1.52574       -3.99490        1.78915
H          0.46230       -2.32332        0.27862
N         -0.51761        2.82193        0.83719
C          0.58145        3.39242        0.02021
C         -0.05636        2.08211        2.04108
H         -1.15620        3.56370        1.12178
H          1.16465        2.55770       -0.36933
H          0.14460        3.95383       -0.80607
H          1.20004        4.04133        0.64247
H          0.71109        1.36973        1.73475
H          0.36451        2.79295        2.75529
H         -0.90926        1.55302        2.46421
