33
1sa1msa1ma1dma_207.log	Energy: -1001137.8116347
S         -0.29274       -0.83295       -0.55937
O          0.30566        0.45992       -0.95400
O         -1.48696       -1.19742       -1.34700
O          0.76597       -1.96822       -0.92380
O         -0.54716       -0.91642        0.90306
H          1.65753       -1.68587       -0.60549
H         -2.13301       -1.60827        1.17864
S          3.60274        0.40797        0.10902
O          4.55023        0.82016       -0.90552
O          3.08394       -0.96636        0.05662
O          2.39025        1.41352        0.19711
H          1.56098        1.04707       -0.26219
C          4.32214        0.65665        1.71420
H          5.21487        0.03243        1.76213
H          4.58425        1.71016        1.81006
H          3.59435        0.35959        2.46818
N         -2.99060       -2.00143        0.72340
H         -2.74265       -1.80211       -0.27300
C         -4.24759       -1.34876        1.16140
H         -5.07934       -1.75398        0.58450
H         -4.40177       -1.54837        2.22216
H         -4.15628       -0.26691        0.99099
H         -2.99619       -3.01016        0.85952
N         -3.94366        1.83860        0.47594
C         -5.01118        2.12881       -0.47216
C         -2.61724        1.95534       -0.12691
H         -4.01186        2.47652        1.26204
H         -5.00647        1.36943       -1.26177
H         -5.98100        2.08699        0.03204
H         -4.91037        3.11301       -0.95850
H         -2.51056        1.20880       -0.91922
H         -2.42756        2.94517       -0.57139
H         -1.84722        1.75231        0.62064
