36
1sa1msa2dma_177.log	Energy: -1025803.4392091
S         -1.14546       -0.41075       -0.59905
O          0.03011       -0.00986       -1.39572
O         -2.24340       -1.01859       -1.37686
O         -0.68012       -1.59568        0.36901
O         -1.63443        0.69153        0.26947
H          0.22296       -1.40347        0.73312
H         -3.37370        0.45878        0.50349
S          2.97125       -1.06506        0.20115
O          3.86696       -2.19025        0.34764
O          1.80994       -0.96024        1.10326
O          2.44086       -1.06200       -1.29296
H          1.52948       -0.65625       -1.36135
C          3.87790        0.45296        0.31541
H          4.28712        0.50406        1.32551
H          4.67967        0.41004       -0.42217
H          3.17914        1.27964        0.11962
N         -4.18260       -0.15276        0.24944
C         -5.38432        0.62855       -0.09764
C         -4.36653       -1.17007        1.30877
H         -3.75803       -0.61571       -0.58686
H         -5.74148        1.15678        0.78748
H         -5.12256        1.34573       -0.87535
H         -6.16016       -0.04580       -0.46272
H         -4.68788       -0.68002        2.22865
H         -5.11667       -1.89335        0.98689
H         -3.41061       -1.67115        1.46605
N          1.35861        2.45892       -0.01306
C          1.23725        3.76340       -0.64016
C          0.99486        2.47247        1.39546
H          0.76516        1.79364       -0.50142
H          1.97444        4.45163       -0.21023
H          1.44159        3.67706       -1.71077
H          0.23924        4.21903       -0.51232
H          1.70014        3.10431        1.94911
H         -0.02347        2.85421        1.57692
H          1.05669        1.45739        1.79616
