36
1sa1msa2dma_77.log	Energy: -1025815.7601316
S          0.86132       -1.40677        0.21393
O         -0.04469       -0.74924       -0.83242
O          1.18507       -0.43110        1.26530
O          0.24318       -2.66063        0.64192
O          2.18503       -1.76917       -0.54331
H          2.83686       -0.93880       -0.57816
S         -1.56617        2.16735       -0.02997
O         -2.54840        1.08024        0.07199
O         -2.02721        3.48882       -0.39682
O         -0.44325        1.74991       -1.05842
H         -0.21934        0.75650       -0.97000
C         -0.68617        2.23988        1.51458
H         -1.41687        2.45756        2.29460
H         -0.19032        1.27847        1.67803
H          0.04593        3.04457        1.44195
N         -2.52043       -1.64036       -0.32140
C         -2.74061       -1.85454        1.12953
C         -2.65680       -2.86390       -1.13901
H         -3.12809       -0.88347       -0.64173
H         -1.97936       -2.54852        1.48484
H         -2.63263       -0.89162        1.62648
H         -3.74509       -2.25206        1.28566
H         -1.89451       -3.56936       -0.80636
H         -3.65446       -3.28741       -1.01094
H         -2.48477       -2.61094       -2.18513
H         -1.54453       -1.26097       -0.47471
N          3.76996        0.26863       -0.58114
C          4.39439        0.34945        0.74391
C          2.97930        1.46058       -0.90904
H          4.48791        0.13625       -1.28793
H          3.60104        0.36924        1.49471
H          5.00233       -0.54216        0.91175
H          5.02339        1.24325        0.85207
H          2.17921        1.55753       -0.17208
H          3.58425        2.37700       -0.90167
H          2.52151        1.33818       -1.89279
