32
1sa1msa1a1eda_280.log	Energy: -1011223.7620177
S          0.82869       -0.27785       -0.94849
O         -0.53182       -0.49433       -1.49249
O          1.92700       -0.79825       -1.75721
O          1.05614        1.28803       -0.88507
O          0.90157       -0.76528        0.47404
H          0.19703        1.77644       -0.54602
H          2.26313       -1.03574        0.93461
S         -3.38379       -0.09104        0.37483
O         -3.70368        0.86134       -0.68481
O         -2.74152        0.44915        1.57128
O         -2.56591       -1.30556       -0.19921
H         -1.72038       -0.99887       -0.68680
C         -4.85618       -0.96164        0.85378
H         -5.53120       -0.22395        1.28855
H         -5.29502       -1.41198       -0.03578
H         -4.58483       -1.71850        1.58896
N         -1.10694        2.49154       -0.05912
H         -1.02786        3.49675        0.05564
H         -1.42830        2.09104        0.82239
H         -1.85879        2.30802       -0.72289
H          5.24271       -1.41547        0.52640
H          3.93101       -1.44556       -0.70216
H          5.17873        0.74730       -0.69091
H          3.45588        0.91054       -0.36179
H          5.61844        1.23589        1.56812
H          4.22016        2.07236        1.41102
H          3.32677       -2.18679        1.64456
H          3.50055       -0.56877        2.04604
C          4.28756       -0.98016        0.21715
C          4.39708        0.53323        0.04686
N          3.28871       -1.23438        1.29095
N          4.63089        1.14857        1.35669
