38
1sa1msa1dma1eda_222.log	Energy: -1060544.6708719
S          2.30112       -0.77582       -0.88205
O          2.69323       -0.01494        0.31008
O          2.59037       -2.19960       -0.89326
O          0.89041       -0.46807       -1.30291
O          3.21430       -0.08347       -2.03951
H          3.20383       -0.66727       -2.80976
S         -1.68214       -1.63227        0.52227
O         -2.78139       -0.71089        0.23967
O         -0.68492       -1.18023        1.49175
O         -0.98372       -2.07545       -0.80940
H         -0.17338       -1.47506       -1.02755
C         -2.35959       -3.18649        1.04691
H         -2.89582       -3.00255        1.97823
H         -3.04052       -3.54119        0.27347
H         -1.53671       -3.88421        1.19889
N          1.08837        1.49182        1.90295
C          2.02504        2.63091        1.88676
C          0.52384        1.17935        3.22817
H          0.29481        1.68602        1.19356
H          2.84655        2.44277        2.58031
H          2.42496        2.73389        0.87805
H          1.49448        3.53986        2.17723
H          1.32709        0.91015        3.91692
H         -0.00441        2.05679        3.60690
H         -0.16719        0.34464        3.11549
H          1.58266        0.67669        1.49339
H         -1.53309        1.88062       -2.71504
H         -2.30907        3.46666       -2.58395
H         -0.25931        3.37356       -1.22959
H         -1.68983        3.61816       -0.20869
H         -1.63383        1.27432        0.30085
H         -0.31317        1.05196       -0.63728
H         -4.03410        1.95200       -2.28786
H         -3.22316        1.03106       -1.21097
C         -2.08527        2.54742       -2.03122
C         -1.17511        2.90177       -0.85683
N         -3.34203        1.98308       -1.54880
N         -0.79550        1.73707       -0.04847
