32
1sa1msa1a1eda_99.log	Energy: -1011236.1589755
S          2.52439       -0.39542        0.15857
O          2.87927        1.01821       -0.11991
O          1.55266       -0.59787        1.22800
O          2.20782       -1.14085       -1.08260
O          3.88915       -1.04915        0.74979
H          4.61482       -0.82351        0.15249
S         -1.71841        1.63444        0.19443
O         -3.16417        1.43040        0.13373
O         -1.23721        3.03439        0.06844
O         -0.97273        0.77272       -0.81162
C         -1.16775        1.07547        1.80108
H         -1.53399        1.79355        2.53551
H         -1.60120        0.09364        1.99551
H         -0.07892        1.01047        1.80882
N          1.01642        2.51707       -1.38578
H          1.80204        2.04698       -0.86943
H          0.37394        1.76249       -1.67951
H          0.40507        3.06582       -0.74859
H          1.35256        3.07082       -2.16689
H         -0.60662       -3.48140        0.42235
H         -0.49010       -1.90019        1.21574
H         -2.85378       -2.80851        1.32171
H         -2.78111       -1.31144        0.38602
H         -3.14389       -3.98949       -0.69580
H         -3.86600       -2.58056       -1.11458
H          0.56722       -1.85417       -0.97673
H         -0.94709       -2.28596       -1.64986
C         -0.95024       -2.44369        0.38925
C         -2.47403       -2.36307        0.39355
N         -0.46539       -1.83286       -0.86952
N         -2.98974       -2.99550       -0.82244
H         -0.72372       -0.80883       -0.87044
