30
1sa1msa1a1dma_117.log	Energy: -976478.8924754
S          1.74561       -0.71826        0.52219
O          0.65812       -0.24202        1.37611
O          2.90378       -1.34141        1.11653
O          1.16125       -1.74985       -0.51664
O          2.17734        0.51176       -0.34077
H          0.24742       -1.47034       -0.81293
H          3.14516        0.35797       -0.71897
S         -2.42991       -0.93793       -0.24304
O         -3.36597       -2.01977       -0.43643
O         -1.23739       -0.86260       -1.10941
O         -1.93145       -0.99132        1.26621
H         -0.99720       -0.67246        1.34765
C         -3.25805        0.62343       -0.34068
H         -3.61626        0.73130       -1.36545
H         -4.09366        0.59288        0.35902
H         -2.52501        1.39942       -0.07687
N          4.59356        0.00848       -1.13048
H          4.66753       -0.42475       -2.04585
H          4.87854       -0.67663       -0.43355
H          5.24367        0.78739       -1.09497
N         -0.62521        2.40735        0.21425
C         -0.53011        3.65224        0.95945
C         -0.29289        2.56369       -1.19375
H         -0.00523        1.71782        0.62821
H         -1.28956        4.35573        0.59980
H         -0.72091        3.46370        2.01911
H          0.45363        4.14344        0.86406
H         -1.03085        3.21987       -1.67063
H          0.70615        2.99962       -1.36027
H         -0.33223        1.58888       -1.68619
