24
1sa1msa2a_65.log	Energy: -927167.2338637
S          2.36471       -0.39231       -0.12440
O          3.53809       -0.68478       -0.93009
O          2.62861        0.46704        1.05962
O          1.14601        0.03852       -0.83780
O          1.86978       -1.83816        0.49624
H          2.66288       -2.34142        0.72186
S         -2.30940       -0.31914        0.03012
O         -1.78445        0.09302        1.32370
O         -2.49346        0.68074       -1.01322
O         -3.76614       -0.97637        0.30907
H         -4.41920       -0.49245       -0.21703
C         -1.40425       -1.71359       -0.56777
H         -0.39448       -1.34661       -0.78246
H         -1.38561       -2.46556        0.22056
H         -1.90281       -2.07877       -1.46518
N          0.42420        1.96101        1.45958
H          1.32584        1.41325        1.39225
H         -0.34378        1.29931        1.62420
H          0.46777        2.64985        2.20391
H          0.24273        2.41240        0.50895
N         -0.06488        2.68362       -1.17048
H         -1.01714        2.39400       -1.38292
H          0.54313        1.93538       -1.50739
H          0.13860        3.53295       -1.68539
