28
1sa1msa1eda_153.log	Energy: -975722.7324081
S         -1.43437       -1.61571        0.00464
O         -2.88295       -1.44832       -0.07095
O         -0.86576       -2.94918       -0.09601
O         -0.73015       -0.64133       -0.91849
O         -1.08201       -1.03380        1.48965
H         -1.64114        0.56638       -1.07163
H         -0.11250       -0.96012        1.55944
S          2.30917        0.06375       -0.00494
O          1.94641        1.32533       -0.61662
O          1.67809       -0.34958        1.24733
O          3.89932        0.14053        0.31425
H          4.04118       -0.17717        1.21776
C          2.24647       -1.23908       -1.20236
H          1.19583       -1.32311       -1.49298
H          2.88536       -0.95101       -2.03715
H          2.59363       -2.15497       -0.72474
H         -3.12867        2.67997        0.44713
H         -2.71167        1.02938        1.00045
H         -1.05187        2.81781        1.78355
H         -0.33641        1.49570        0.86419
H         -0.53690        4.24076        0.03284
H          0.48688        3.04599       -0.45614
H         -3.20428        1.14736       -1.40198
H         -1.87448        2.19110       -1.55222
C         -2.38949        1.87587        0.39197
C         -0.99595        2.36293        0.78874
N         -2.30229        1.42309       -1.02139
N         -0.47934        3.26773       -0.23963
