36
1sa1msa2dma_187.log	Energy: -1025802.5485158
S          1.03024       -1.24886        0.49518
O          2.31642       -1.90470        0.78288
O         -0.06050       -1.57244        1.42782
O          1.19774        0.22594        0.31198
O          0.62538       -1.82731       -0.94131
H          2.84654        0.51656       -0.03858
H         -0.28918       -1.51179       -1.15329
S         -2.93374       -0.60105       -0.31449
O         -3.92203       -1.66064       -0.32008
O         -1.80043       -0.71801       -1.24813
O         -2.36206       -0.36998        1.14760
H         -1.49322       -0.85649        1.28900
C         -3.70701        0.96890       -0.57913
H         -4.16444        0.92726       -1.56841
H         -4.46886        1.09893        0.18993
H         -2.91935        1.73018       -0.51971
N         -0.86444        2.46699        0.01855
C         -1.01025        2.96166        1.37762
C         -0.04777        3.33438       -0.80968
H         -0.41963        1.55277        0.05491
H         -1.55828        3.91112        1.36939
H         -1.58364        2.24080        1.96629
H         -0.04446        3.13349        1.88530
H         -0.54602        4.30127       -0.94471
H          0.95271        3.53323       -0.38007
H          0.08332        2.88128       -1.79648
N          3.80677        0.12224       -0.20167
C          4.85770        0.93052        0.44419
C          3.98156       -0.10653       -1.65363
H          3.67293       -0.79604        0.26817
H          4.89443        1.91423       -0.02580
H          4.61921        1.03687        1.50231
H          5.82158        0.43242        0.33045
H          3.97588        0.85402       -2.17018
H          4.92750       -0.62070       -1.82834
H          3.15110       -0.72200       -2.00174
