35
1sa1msa1ma1eda_79.log	Energy: -1035891.4564451
S         -1.08828       -1.69324        0.59510
O          0.35996       -1.77639        0.95559
O         -1.81326       -2.94850        0.60498
O         -1.74257       -0.59970        1.36663
O         -1.00366       -1.15986       -0.92519
H         -0.49355        0.53409        1.85422
H         -1.91565       -0.83882       -1.21719
S          2.65086        0.11990       -0.55969
O          2.75514        0.59630        0.82953
O          1.78968        0.90576       -1.43513
O          2.27987       -1.39504       -0.58301
H          1.44665       -1.60069        0.01259
C          4.28162        0.03609       -1.25431
H          4.65852        1.05753       -1.31174
H          4.90394       -0.57474       -0.60138
H          4.20223       -0.40392       -2.24808
N          0.16117        1.33959        1.75114
H          1.11216        0.97217        1.58463
C          0.11572        2.26762        2.89346
H          0.81122        3.08928        2.72098
H         -0.89603        2.66046        2.99907
H          0.39523        1.73986        3.80531
H         -0.15699        1.78211        0.84445
H         -2.71104        1.59200        0.43336
H         -2.68731        3.11040       -0.46592
H         -4.35611        1.85214       -1.52807
H         -2.96093        1.64832       -2.59903
H         -3.86062       -0.31253       -0.60108
H         -3.91774       -0.47548       -2.22751
H         -0.74938        0.95729       -0.99472
H         -0.66222        2.51970       -1.45270
C         -2.45597        2.04254       -0.53392
C         -3.35210        1.41085       -1.60398
N         -1.01147        1.90600       -0.72450
N         -3.39264       -0.05399       -1.46786
