36
1sa1msa1ma1tma_121.log	Energy: -1025797.7523417
S         -2.70050       -0.24665       -0.44966
O         -3.93754       -0.27314       -1.25575
O         -1.55407        0.38110       -1.13108
O         -2.94533        0.33441        0.90237
O         -2.34607       -1.78489       -0.24121
H         -4.58207        0.56226        1.10164
H         -1.42900       -1.85735        0.12394
S          1.32724       -0.94329        0.28632
O          2.16812       -1.55320       -0.72769
O          0.15845       -1.70697        0.75138
O          0.84638        0.49093       -0.17499
H         -0.09287        0.46402       -0.54687
C          2.31544       -0.50165        1.68624
H          2.70231       -1.43366        2.10086
H          3.13430        0.13402        1.32110
H          1.67816        0.01137        2.40579
N         -5.53540        0.65653        0.65062
H         -5.31297        0.18380       -0.25585
C         -5.88563        2.07865        0.44022
H         -6.80804        2.15087       -0.13529
H         -6.00363        2.57137        1.40480
H         -5.06821        2.54204       -0.11130
H         -6.24224        0.13974        1.16745
N          4.76314        0.88955        0.01834
C          4.10973        1.40987       -1.17414
H          3.40215        0.67114       -1.55755
H          3.55341        2.31807       -0.92495
H          4.83671        1.65206       -1.97253
C          5.69049        1.85713        0.57616
H          5.16010        2.78248        0.82064
H          6.13368        1.46180        1.49554
H          6.51193        2.10619       -0.12308
C          5.42149       -0.37765       -0.25953
H          5.86683       -0.77273        0.65949
H          4.68513       -1.09799       -0.62609
H          6.22376       -0.27728       -1.01499
