36
1sa1msa2dma_63.log	Energy: -1025814.7939364
S         -1.31098        0.24586       -0.55008
O         -1.03083        1.32550        0.44218
O         -2.41615        0.55980       -1.44844
O         -0.03350       -0.10992       -1.25499
O         -1.67015       -1.05990        0.25919
H         -2.68150       -1.04999        0.52338
S          2.77523       -1.14598        0.15759
O          2.47746       -0.90190        1.56276
O          3.20945        0.03696       -0.60917
O          1.59725       -1.85249       -0.57759
H          0.84577       -1.16837       -0.84522
C          4.02214       -2.39965        0.01470
H          3.65590       -3.29815        0.51082
H          4.20879       -2.58098       -1.04304
H          4.91531       -2.01987        0.51119
N          1.48087        2.15037        0.10472
C          2.07482        2.60305        1.37826
C          1.32854        3.19663       -0.92583
H          2.05942        1.37914       -0.27388
H          1.41748        3.34539        1.83345
H          2.17228        1.73561        2.03197
H          3.05814        3.03728        1.18950
H          0.66405        3.97447       -0.54734
H          2.30527        3.61890       -1.16795
H          0.88599        2.73826       -1.81035
H          0.51753        1.75203        0.29322
N         -4.20599       -0.98015        0.83380
C         -4.91733       -1.36802       -0.38904
C         -4.51252        0.39184        1.25329
H         -4.44174       -1.62320        1.58411
H         -4.55302       -0.74391       -1.20864
H         -4.69232       -2.41101       -0.62288
H         -6.00502       -1.24574       -0.29204
H         -4.18215        1.07628        0.46841
H         -5.58648        0.54145        1.43078
H         -3.95809        0.62542        2.16474
