38
1sa1msa1dma1eda_210.log	Energy: -1060548.0622845
S         -1.25544        1.93294       -0.25296
O         -2.49554        1.23381        0.16452
O         -0.28321        2.05732        0.85233
O         -0.67913        1.46391       -1.51043
O         -1.74266        3.44481       -0.59254
H         -2.30267        3.74768        0.13493
S         -1.46851       -2.04513        0.22593
O         -1.64432       -3.44252        0.56104
O         -0.22483       -1.37908        0.62415
O         -2.69510       -1.25799        0.83256
H         -2.60856       -0.27087        0.64271
C         -1.65887       -1.81403       -1.52932
H         -0.86416       -2.38299       -2.01422
H         -2.63689       -2.19950       -1.81668
H         -1.55955       -0.74894       -1.75370
N          1.76624        0.41920        1.53780
C          2.67287        1.58608        1.54993
C          1.47004       -0.14008        2.87209
H          0.87586        0.73510        1.10827
H          3.60579        1.31221        2.04756
H          2.86091        1.86666        0.51210
H          2.18861        2.40865        2.07661
H          2.39753       -0.48988        3.32945
H          1.01897        0.63784        3.48985
H          0.77116       -0.96528        2.74313
H          2.20198       -0.31373        0.92491
H          3.57560       -1.65666       -2.24281
H          2.32767       -2.49478       -1.30717
H          1.36075       -0.80360       -2.85051
H          0.95268       -0.53113       -1.15903
H          2.84886        1.04349       -2.70830
H          1.52740        1.50318       -1.86072
H          4.03709       -1.86870        0.17409
H          4.02312       -0.31601       -0.34910
C          2.82064       -1.52864       -1.45189
C          1.77498       -0.50409       -1.87562
N          3.43718       -1.12930       -0.17700
N          2.31394        0.85654       -1.86555
