42
1sa1msa2tma_35.log	Energy: -1075130.4672595
S          0.35085        0.34243        0.87847
O          0.55558       -0.21063       -0.49967
O          0.92948        1.66553        1.05892
O         -1.07050        0.20369        1.27335
O          1.09181       -0.68748        1.86267
H          2.03945       -0.73024        1.58963
S          4.03536        0.05681       -0.43440
O          5.29417       -0.31285       -1.04064
O          3.57379       -0.69449        0.74128
O          2.92337       -0.02317       -1.55886
H          1.99905       -0.07680       -1.15762
C          4.05780        1.78127       -0.00197
H          4.82368        1.90580        0.76467
H          4.31215        2.34722       -0.89803
H          3.07099        2.05033        0.38204
N         -2.12907       -1.80358       -0.14598
C         -1.13631       -2.86871        0.14788
H         -0.17441       -2.56150       -0.26161
H         -1.04703       -2.97660        1.22911
H         -1.47313       -3.80429       -0.30413
C         -3.46717       -2.11803        0.40598
H         -3.37642       -2.25866        1.48366
H         -4.11802       -1.27023        0.19049
H         -3.84590       -3.03008       -0.06130
C         -2.18720       -1.48682       -1.59497
H         -2.92818       -0.69812       -1.72669
H         -1.20225       -1.13264       -1.89915
H         -2.46967       -2.38774       -2.14505
H         -1.78461       -0.93847        0.35571
N         -3.96432        1.11586       -0.39245
C         -4.15515        1.39138        1.02679
H         -4.88178        0.68731        1.44771
H         -3.20409        1.27368        1.55114
H         -4.53463        2.41427        1.20340
C         -2.95602        2.00827       -0.95270
H         -2.01466        1.88210       -0.41433
H         -2.78915        1.76877       -2.00810
H         -3.25806        3.06924       -0.88745
C         -5.21948        1.22813       -1.11797
H         -5.06063        1.00041       -2.17713
H         -5.94875        0.51463       -0.71912
H         -5.66007        2.23996       -1.04857
