38
1sa1msa1dma1eda_225.log	Energy: -1060548.3854707
S          0.26671        0.18581       -0.91078
O          1.31117       -0.24928       -1.85584
O          0.55717        1.46235       -0.24007
O         -1.10101        0.12379       -1.47090
O          0.19991       -0.94215        0.25166
H          1.10324       -1.03488        0.64088
S          3.92656       -0.32325        0.44238
O          5.25258       -0.74496        0.83133
O          2.77061       -0.96060        1.08926
O          3.80977       -0.50531       -1.12335
H          2.85631       -0.42026       -1.43257
C          3.76250        1.43384        0.66460
H          3.86842        1.62827        1.73266
H          4.56146        1.91850        0.10360
H          2.77348        1.73429        0.30941
N         -2.72729        1.45833        0.23570
C         -2.12625        1.43372        1.58982
C         -2.85162        2.80973       -0.34431
H         -2.12018        0.89416       -0.41006
H         -2.74146        2.03375        2.26402
H         -2.09716        0.39400        1.91925
H         -1.11258        1.83090        1.52809
H         -3.47562        3.43126        0.30076
H         -1.85427        3.24220       -0.43628
H         -3.30415        2.72810       -1.33285
H         -3.65435        0.96346        0.27797
H         -5.50398       -2.26158        0.37876
H         -5.48537       -1.24483       -1.06799
H         -3.54543       -2.81953       -0.94494
H         -3.05937       -1.13896       -1.08525
H         -2.86376       -2.76980        1.31368
H         -1.75073       -1.79408        0.61680
H         -5.94791        0.09974        0.83517
H         -4.60864       -0.44765        1.60532
C         -4.97036       -1.44023       -0.12248
C         -3.52932       -1.85900       -0.41055
N         -4.99280       -0.21271        0.69213
N         -2.74300       -1.88948        0.82340
