40
1sa1msa2eda_178.log	Energy: -1095281.8196506
S          0.87526       -0.27620       -0.45401
O          1.89806        0.67404       -1.07723
O         -0.39755       -0.13038       -1.26669
O          1.41186       -1.65201       -0.50295
O          0.59705        0.18066        0.94430
H          3.73115       -1.65579       -1.05309
H         -0.75020        1.19736        0.81314
S         -3.40237       -0.97282        0.14142
O         -3.69406        0.45936       -0.06441
O         -2.98229       -1.34693        1.48308
O         -2.42031       -1.48559       -0.94900
H         -1.50680       -0.92901       -1.04287
C         -4.85518       -1.89576       -0.30118
H         -5.63987       -1.60578        0.39804
H         -5.13030       -1.64429       -1.32475
H         -4.62529       -2.95647       -0.20368
H         -1.72307        4.00446        0.57913
H         -1.12877        3.22938        2.07129
H          0.65453        4.59288        0.85206
H          1.08669        2.89251        1.08395
H          0.83837        4.21197       -1.37990
H          1.13186        2.59395       -1.13044
H         -2.36727        1.64265        0.53021
H         -1.17893        1.94713       -0.57807
C         -1.02788        3.26489        0.98417
C          0.41130        3.56941        0.54865
N         -1.38723        1.94416        0.43039
N          0.53159        3.38289       -0.89209
H          3.09630       -0.42948        1.48564
H          4.61826       -0.89865        2.24746
H          4.94715        0.65707        0.27498
H          5.79212       -0.90918        0.10784
H          3.17354       -0.05743       -1.14962
H          4.65225       -0.56172       -1.91312
H          3.96952       -3.02080        1.83443
H          2.73688       -2.52954        0.84140
C          4.01468       -1.01030        1.34152
C          4.81546       -0.42302        0.17549
N          3.72318       -2.41325        1.06555
N          4.07578       -0.68685       -1.08547
