36
1sa1msa1ma1tma_06.log	Energy: -1025829.2202850
S          1.50222        1.48913       -0.60857
O          1.17665        1.17295        0.82624
O          2.92892        1.53159       -0.87422
O          1.00961        0.12601       -1.39123
O          0.66054        2.57663       -1.11532
H         -1.40976        2.17884       -0.16081
S         -2.17090       -0.93956       -0.22989
O         -2.67190       -0.32060        1.02661
O         -1.20076       -2.03185       -0.01187
O         -1.65524        0.09879       -1.17620
H          0.01507        0.12400       -1.43518
C         -3.58921       -1.66815       -1.02876
H         -4.00278       -2.42083       -0.35716
H         -4.31800       -0.88085       -1.22148
H         -3.25590       -2.12238       -1.96194
N         -1.38124        2.12132        0.86249
H         -2.03599        1.36065        1.12879
C         -1.62518        3.42525        1.50363
H         -1.52240        3.31644        2.58310
H         -0.88768        4.13694        1.13306
H         -2.63062        3.77168        1.26420
H         -0.40934        1.76918        1.04489
N          1.83259       -1.79895        0.51841
C          1.23123       -1.82561        1.87753
H          1.31631       -0.82326        2.29572
H          0.18164       -2.09972        1.77628
H          1.77895       -2.55033        2.48449
C          1.68982       -3.09992       -0.18268
H          0.62833       -3.33387       -0.24981
H          2.11269       -2.99881       -1.18269
H          2.23007       -3.86485        0.37924
C          3.24718       -1.34141        0.55308
H          3.60372       -1.22039       -0.46945
H          3.28620       -0.37366        1.05082
H          3.84054       -2.08582        1.08840
H          1.31287       -1.10160       -0.05040
