36
1sa1msa1ma1tma_34.log	Energy: -1025816.4831417
S         -1.36544        0.22470       -0.40846
O         -1.23977       -1.16513        0.12482
O         -1.63301        1.21190        0.64941
O         -0.20454        0.60367       -1.25343
O         -2.59652        0.18605       -1.39604
H         -3.33942       -0.38184       -0.95717
S          2.23076       -1.72926        0.17285
O          3.33016       -2.59170        0.55397
O          2.36432       -0.28770        0.40107
O          0.94403       -2.26592        0.91127
H          0.10427       -1.76586        0.64126
C          1.84523       -1.96277       -1.54925
H          2.72979       -1.66625       -2.11471
H          1.62487       -3.01817       -1.70796
H          0.99518       -1.32258       -1.79570
N         -4.27136       -1.32804       -0.05642
H         -5.04133       -1.80490       -0.51372
C         -4.72653       -0.59224        1.13200
H         -5.18752       -1.23731        1.88869
H         -3.86836       -0.08056        1.57311
H         -5.44981        0.16672        0.82584
H         -3.58052       -2.02809        0.20526
N          1.21545        2.47381        0.11523
C          2.58102        2.65326       -0.43351
H          3.17346        1.77855       -0.16883
H          2.51063        2.73899       -1.51851
H          3.01655        3.56315       -0.01412
C          0.30675        3.57974       -0.28016
H          0.27698        3.63599       -1.36848
H         -0.68909        3.34835        0.09833
H          0.68245        4.51554        0.14000
C          1.22557        2.28357        1.59063
H          0.20241        2.07571        1.90423
H          1.86314        1.43128        1.82012
H          1.60426        3.19633        2.05698
H          0.80861        1.60879       -0.32337
