32
1sa1msa1a1eda_221.log	Energy: -1011227.0513282
S         -0.67865        0.84884       -0.81133
O         -0.39774       -0.52192       -0.27929
O          0.47999        1.47944       -1.43679
O         -1.90289        0.79387       -1.66101
O         -1.12011        1.72505        0.43037
H         -2.81853       -0.35661       -1.31382
H         -0.26574        2.11123        0.90737
S          3.14012       -0.76658        0.27998
O          4.24986       -1.64989        0.57141
O          2.77610        0.25643        1.26196
O          1.88541       -1.68490       -0.01278
H          1.02750       -1.15701       -0.08806
C          3.41535        0.04446       -1.27997
H          4.27356        0.70523       -1.14996
H          3.63143       -0.72262       -2.02349
H          2.51593        0.61060       -1.53587
N          1.06171        2.63675        1.48178
H          1.05857        3.01214        2.42432
H          1.41569        3.35268        0.85458
H          1.71600        1.84956        1.44989
H         -3.78708       -2.65764        0.38790
H         -2.10589       -2.04611        0.21575
H         -3.23971       -1.20556        2.32239
H         -2.69138        0.07540        1.24123
H         -5.45219       -0.69891        1.74359
H         -4.81368        0.78073        1.45014
H         -3.58219       -1.80717       -1.80612
H         -4.43683       -0.68432       -0.89321
C         -3.15986       -1.77148        0.25422
C         -3.41612       -0.73641        1.34796
N         -3.52508       -1.13788       -1.04286
N         -4.76952       -0.19626        1.18832
