33
1sa1msa1ma1dma_81.log	Energy: -1001152.2364709
S         -1.45635       -1.69457        0.19694
O         -1.55891       -1.33847        1.61338
O         -2.57731       -1.20639       -0.63223
O         -0.14233       -1.37488       -0.41197
O         -1.49330       -3.31376        0.10967
H         -2.23306       -3.62680        0.64800
S          2.78234        0.15892       -0.06830
O          4.07730        0.44022        0.51099
O          1.84726        1.26259       -0.30066
O          2.08320       -0.92611        0.84832
H          1.17461       -1.14904        0.47755
C          2.98586       -0.70308       -1.61427
H          3.40902        0.00376       -2.32884
H          3.66582       -1.53845       -1.44824
H          2.00662       -1.05660       -1.94223
N         -0.60928        1.59824        1.39830
H         -0.80756        0.69028        1.82136
C         -0.82658        2.68195        2.36040
H         -0.19787        2.59663        3.25389
H         -0.61288        3.64226        1.88340
H         -1.87304        2.68523        2.67707
H          0.36326        1.57223        1.08894
N         -1.93299        1.47033       -0.96255
C         -0.90960        1.56256       -2.02329
C         -3.01980        2.45703       -1.07261
H         -2.31740        0.50403       -0.94934
H         -0.42863        2.54093       -1.97437
H         -0.16405        0.78990       -1.83826
H         -1.37677        1.41873       -2.99973
H         -2.60167        3.46277       -0.99597
H         -3.53084        2.34588       -2.03112
H         -3.73027        2.29456       -0.26112
H         -1.43176        1.57755        0.00904
