41
1sa1msa1tma1eda_82.log	Energy: -1085214.4028351
S          2.50303       -1.31635       -0.11462
O          1.66281       -2.28153       -0.81984
O          3.04928       -0.23928       -0.98020
O          1.90802       -0.77136        1.12380
O          3.79705       -2.12988        0.43901
H          4.15476       -2.65580       -0.28935
S         -2.64124        1.28744        0.11117
O         -2.21615        2.68913        0.21580
O         -2.57844        0.53773        1.40566
O         -1.92551        0.52947       -0.96453
C         -4.36395        1.28867       -0.35993
H         -4.45535        1.81655       -1.30947
H         -4.69776        0.25527       -0.46288
H         -4.92674        1.80080        0.42091
H         -0.56705       -3.37425        0.07933
H         -1.30678       -3.21718        1.68992
H         -3.03245       -3.92285        0.10579
H         -3.38541       -2.29469        0.66677
H         -2.63863       -1.42065       -1.41439
H         -2.19947       -2.92376       -1.95050
H          0.14153       -1.32681        1.09503
H         -0.83877       -0.98055       -0.19426
C         -1.29769       -2.81819        0.67196
C         -2.69667       -2.88171        0.04847
N         -0.82325       -1.41582        0.73973
N         -2.81279       -2.41921       -1.32067
H         -1.47287       -0.79187        1.27252
N          2.19601        2.16551       -0.13796
C          2.88289        2.39585        1.15626
H          2.62804        1.57167        1.82277
H          3.96042        2.41038        0.98831
H          2.54985        3.34846        1.57348
C          2.61009        3.13687       -1.17609
H          3.68603        3.05213       -1.33236
H          2.08605        2.90283       -2.10283
H          2.35272        4.14646       -0.84935
C          0.71585        2.13143        0.02480
H          0.25266        1.79905       -0.90402
H          0.47581        1.42608        0.81869
H          0.34218        3.12198        0.28582
H          2.50306        1.21412       -0.47281
