23
1sa1msa1ma_17.log	Energy: -916335.6891042
S          2.25461       -0.54446       -0.10566
O          3.25227       -1.57575       -0.30669
O          0.92967       -0.75382       -0.74658
O          1.86422       -0.58359        1.48574
O          2.69897        0.84584       -0.36679
H          2.60688       -0.98155        1.95876
H          1.34626        1.71671       -0.72604
S         -2.20756       -0.27063        0.04449
O         -1.89887        0.65293       -1.06106
O         -2.10288        0.27974        1.38627
O         -1.36161       -1.58401       -0.11006
H         -0.38444       -1.35763       -0.30840
C         -3.83033       -0.93898       -0.20795
H         -3.87532       -1.37434       -1.20545
H         -4.00716       -1.69168        0.56012
H         -4.53517       -0.11325       -0.10790
N          0.41293        2.21284       -0.70811
H          0.42724        2.99235       -1.36173
C          0.13621        2.65739        0.68159
H         -0.84589        3.12605        0.72577
H          0.14257        1.77776        1.32444
H          0.91515        3.35196        0.99384
H         -0.32291        1.54391       -1.00645
