30
1sa1msa2ma_20.log	Energy: -976505.0998499
S         -2.68814       -0.00354       -0.21228
O         -2.50330        1.22424       -1.01936
O         -2.50969       -1.24351       -1.00171
O         -1.94202        0.00488        1.04727
O         -4.24212        0.00305        0.25588
H         -4.79752       -0.01085       -0.53530
S          2.74409       -0.01213       -0.03342
O          2.90359       -1.31011        0.63675
O          2.85235        1.19422        0.79843
O          1.43753        0.01080       -0.82280
C          4.02080        0.09798       -1.27763
H          4.98271        0.07165       -0.76476
H          3.92503       -0.75081       -1.95479
H          3.90107        1.03838       -1.81559
N         -0.04835        2.21951       -0.22108
H         -1.01417        1.98938       -0.54529
H          0.54342        1.37376       -0.42687
C         -0.01766        2.54348        1.22856
H          1.02283        2.61260        1.54332
H         -0.55114        3.47890        1.39841
H         -0.51986        1.73060        1.75066
H          0.31754        2.98524       -0.78221
N         -0.03824       -2.21609       -0.22383
H          0.54379       -1.36788       -0.44137
H         -1.00791       -2.00026       -0.54532
C          0.00303       -2.51963        1.23011
H         -0.53111       -3.45135        1.41713
H          1.04632       -2.58837        1.53563
H         -0.49415       -1.69895        1.74490
H          0.33650       -2.98484       -0.77488
