27
1sa1msa1a1ma_08.log	Energy: -951845.1928275
S          2.53790       -0.27083        0.17326
O          2.56020        0.98110        0.92843
O          2.32732       -1.49147        0.95956
O          1.62979       -0.20492       -1.01622
O          3.98960       -0.42260       -0.54602
H          4.66218       -0.46733        0.14727
S         -2.60074       -0.17041        0.00587
O         -2.57087        0.95642       -0.96078
O         -1.55020       -0.04018        1.05109
O         -2.54984       -1.51134       -0.64770
C         -4.18213       -0.09350        0.82252
H         -4.26682        0.87753        1.31048
H         -4.95774       -0.21279        0.06584
H         -4.22796       -0.89931        1.55495
N         -0.00508       -2.35946       -0.44890
H          0.19513       -3.26865       -0.85524
H          0.55754       -1.61970       -0.91926
H         -1.03292       -2.11635       -0.51460
H          0.32024       -2.33537        0.52146
N         -0.05546        1.90025       -0.28170
H          0.59340        1.23595       -0.74722
H         -0.96631        1.86078       -0.77487
C          0.53256        3.24784       -0.14854
H         -0.14789        3.88392        0.41724
H          1.48548        3.14965        0.37021
H          0.68896        3.66840       -1.14166
H         -0.26464        1.45536        0.62276
