27
1sa1msa1a1ma_121.log	Energy: -951828.0651824
S          0.84114        0.90558        0.41074
O         -0.37415        1.44650        1.04990
O          2.09857        1.19653        1.09963
O          0.72406       -0.70623        0.51385
O          0.90447        1.21331       -1.04424
H         -0.17904       -0.97872        0.21978
H          2.51427        1.19794       -1.42893
S         -3.03614       -0.47759       -0.02699
O         -3.82781       -0.97114        1.08108
O         -1.78839       -1.18690       -0.35136
O         -2.73298        1.06062        0.12449
H         -1.79865        1.23438        0.48814
C         -4.03895       -0.44468       -1.49271
H         -4.32925       -1.47490       -1.70047
H         -4.91684        0.16816       -1.28873
H         -3.44750       -0.03070       -2.30837
N          3.56571        1.10706       -1.34428
H          3.87126        1.86177       -0.73301
H          4.03081        1.16049       -2.24522
H          3.73645        0.15793       -0.82285
N          3.70171       -1.15502        0.15625
H          3.76924       -0.73068        1.07928
C          4.63461       -2.27729        0.01491
H          4.49003       -3.05649        0.77182
H          4.50939       -2.73072       -0.97144
H          5.66173       -1.91099        0.09041
H          2.73201       -1.46931        0.10583
