32
1sa1msa1a1eda_210.log	Energy: -1011228.3602251
S         -1.37636        1.55456        0.07522
O         -2.61781        0.95816        0.59302
O         -0.28051        1.50189        1.08322
O         -0.96311        1.08722       -1.24716
O         -1.68924        3.12921       -0.16251
H         -2.04998        3.49126        0.65837
S          2.62088       -0.06810       -0.04139
O          1.89104       -0.52766       -1.22465
O          2.61330       -0.95987        1.11124
O          2.16663        1.38273        0.35942
H          1.18118        1.43425        0.62777
C          4.29589        0.29906       -0.50245
H          4.75015       -0.64022       -0.81876
H          4.27876        1.01853       -1.32034
H          4.80949        0.70320        0.36928
N         -3.47423       -1.37494       -1.20178
H         -3.47771       -0.43671       -0.79795
H         -3.78025       -2.00845       -0.46813
H         -4.13669       -1.40158       -1.96891
H         -0.71823       -3.56090       -0.23144
H          0.83662       -2.67275       -0.19589
H         -0.13459       -2.62894        1.99374
H         -0.14201       -1.00364        1.35177
H         -2.29473       -2.27362        2.38737
H         -2.38358       -0.97001        1.40603
H         -0.37383       -2.09569       -2.12639
H         -1.78003       -1.65479       -1.28737
C         -0.24748       -2.58189       -0.10965
C         -0.61142       -1.98852        1.24578
N         -0.71408       -1.72943       -1.23959
N         -2.05882       -1.93351        1.46371
H         -0.35132       -0.76348       -1.17929
