28
1sa1msa1eda_36.log	Energy: -975732.4692655
S         -2.16829       -0.85519        0.01971
O         -2.20988       -0.69134        1.47005
O         -2.58282        0.31819       -0.77484
O         -0.88607       -1.42549       -0.48033
O         -3.30318       -1.94548       -0.36752
H         -3.25046       -2.66746        0.27338
S          2.42940       -0.41893        0.01489
O          2.98435        0.43913        1.04726
O          1.87451        0.22165       -1.18876
O          1.37842       -1.40168        0.63191
H          0.44291       -1.34547        0.20816
C          3.69400       -1.54740       -0.51872
H          4.50244       -0.95218       -0.94412
H          4.04173       -2.09951        0.35432
H          3.26730       -2.21853       -1.26345
H          0.60208        3.40392       -0.55367
H         -1.11804        3.70251       -0.90037
H         -0.67697        3.40914        1.56103
H         -1.82029        2.22808        0.91259
H          0.93118        1.63839        1.70077
H         -0.46361        0.75734        1.89799
H         -0.31486        2.04126       -2.39208
H          0.38477        1.15133       -1.17371
C         -0.40169        2.97239       -0.51616
C         -0.77019        2.53386        0.90265
N         -0.40831        1.78328       -1.41249
N          0.03812        1.39395        1.28881
H         -1.28994        1.22343       -1.27771
