40
1sa1msa2eda_171.log	Energy: -1095281.3698079
S         -0.56034       -1.54497        0.67794
O         -1.47855       -2.67191        0.68495
O          0.85369       -1.86181        1.01086
O         -0.44718       -0.98388       -0.81886
O         -1.04534       -0.38998        1.49480
H         -1.38205       -0.80197       -1.19284
H         -0.05650        0.88358        1.37731
S          3.41990        0.02422       -0.33366
O          3.15383        0.72558        0.93513
O          2.91485        0.67126       -1.53604
O          2.96304       -1.46197       -0.23725
H          2.04392       -1.60434        0.23946
C          5.17306       -0.20731       -0.48443
H          5.53567       -0.70455        0.41435
H          5.35891       -0.81154       -1.37211
H          5.61864        0.78191       -0.59201
H          0.91773        2.92541       -0.56022
H          0.43493        1.25707       -0.91790
H         -1.45248        2.81581       -1.39990
H         -1.85928        1.70394       -0.08934
H         -1.18537        4.53233        0.21929
H         -2.44251        3.69430        0.84134
H          1.53220        1.46189        1.22179
H          0.28011        2.49835        1.73933
C          0.23497        2.11864       -0.28049
C         -1.22062        2.55069       -0.35946
N          0.53666        1.72610        1.12114
N         -1.46128        3.63239        0.59803
H         -4.86447       -1.23908       -1.69009
H         -3.60849       -2.23668       -0.91921
H         -4.96536       -1.08729        0.76589
H         -3.27765       -0.56791        0.83634
H         -5.47433        0.98466       -0.33017
H         -4.49385        1.38588        0.90712
H         -2.82537       -0.81568       -2.80082
H         -3.09358        0.48958       -1.83888
C         -3.93247       -1.20948       -1.10529
C         -4.18656       -0.52579        0.23146
N         -2.86553       -0.50350       -1.83527
N         -4.52683        0.88892        0.02376
