40
1sa1msa2eda_91.log	Energy: -1095294.4478834
S          3.06663        0.18273       -0.02534
O          3.51703       -1.17498        0.28558
O          2.26619        0.31725       -1.25589
O          2.44199        0.87419        1.13063
O          4.40546        1.04300       -0.37915
H          5.07212        0.83369        0.28853
S         -2.83446       -0.64878        0.04493
O         -2.47676       -2.02077        0.45298
O         -2.31345       -0.29751       -1.31068
O         -2.46133        0.38459        1.05568
C         -4.61291       -0.57929       -0.07530
H         -4.93105       -1.32005       -0.80887
H         -5.02772       -0.80592        0.90697
H         -4.89781        0.42400       -0.39252
H         -0.80812       -3.28802       -0.81036
H          0.74258       -3.46924       -1.68716
H          0.75044       -4.13146        0.84932
H          2.02255       -2.99781        0.33254
H         -0.40007       -2.23829        1.79281
H          1.19969       -1.81534        2.05862
H         -0.70213       -1.16597       -1.58448
H          0.18703       -1.10345       -0.17972
C          0.22644       -2.94967       -0.87936
C          0.94627       -3.12085        0.47339
N          0.17870       -1.49256       -1.15299
N          0.50240       -2.05513        1.36606
H          1.01485       -1.09357       -1.60054
H          0.69498        2.69204       -0.86552
H         -0.49322        1.41627       -1.20579
H         -1.48929        3.67822       -1.61369
H         -2.32559        2.77624       -0.34124
H         -0.48304        5.01498        0.08594
H         -1.98463        4.78856        0.69843
H          0.81509        1.33170        0.99114
H         -0.20825        2.59964        1.44021
C         -0.26273        2.26426       -0.56121
C         -1.39162        3.28695       -0.59334
N         -0.11941        1.77536        0.83385
N         -1.13541        4.31331        0.41928
H         -0.91263        1.12923        1.05012
