30
1sa1msa1a1dma_39.log	Energy: -976497.7415546
S         -1.83528       -0.51712       -0.70740
O         -0.89584       -0.05326       -1.71152
O         -3.14323       -1.00250       -1.08018
O         -1.17972       -1.59698        0.21163
O         -1.99930        0.72942        0.28706
H         -0.23995       -1.26747        0.54046
H         -2.64914        0.44921        1.04421
S          2.31045       -0.80593        0.27556
O          0.98423       -0.68364        1.00131
O          3.39725       -1.24598        1.13697
O          2.56644        0.47013       -0.46231
H          1.30393        1.42406       -0.31462
C          2.04898       -2.04481       -0.98259
H          1.80146       -2.98634       -0.49107
H          1.23809       -1.71534       -1.63423
H          2.97963       -2.14213       -1.54215
N         -3.65835       -0.26652        2.04762
H         -3.14971       -0.92008        2.63621
H         -4.26056       -0.81259        1.43544
H         -4.24549        0.30883        2.64226
N          0.54695        2.12770       -0.06403
C          0.27068        2.99615       -1.22587
C          0.99751        2.83239        1.15328
H         -0.29583        1.58144        0.15519
H          1.19222        3.50334       -1.51469
H         -0.08299        2.36466       -2.04044
H         -0.49337        3.72933       -0.96173
H          1.93296        3.34947        0.93694
H          0.23614        3.54759        1.46996
H          1.16804        2.08667        1.93010
