30
1sa1msa2ma_05.log	Energy: -976509.9091138
S          2.11150        0.13511       -0.48021
O          1.18479       -0.85033       -1.36282
O          3.43603       -0.44258       -0.55627
O          1.94126        1.49488       -1.04743
O          1.49138        0.09848        0.89026
H          0.66318        2.22176       -0.32261
H          0.87459       -1.31577        1.30219
S         -2.22501       -0.13852       -0.18845
O         -2.14298        0.94483        0.82946
O         -2.05718       -1.49631        0.39293
O         -1.31946        0.12410       -1.33755
H          0.26738       -0.47862       -1.42627
C         -3.88330       -0.10094       -0.83748
H         -4.04948        0.87799       -1.28704
H         -3.97022       -0.88791       -1.58657
H         -4.57558       -0.27175       -0.01307
N         -0.06352        2.67664        0.29678
H         -0.47062        3.46282       -0.20428
C          0.57085        3.09285        1.56813
H         -0.18506        3.49779        2.24122
H          1.03261        2.20537        1.99928
H          1.33737        3.83970        1.36190
H         -0.82626        1.98218        0.47607
N          0.34252       -2.22797        1.42592
H          0.24697       -2.42404        2.41934
C          1.02542       -3.32685        0.70326
H          0.44140       -4.24329        0.78900
H          1.11814       -3.02790       -0.34028
H          2.02063       -3.46951        1.12417
H         -0.61045       -2.02985        1.03452
