28
1sa1msa1eda_47.log	Energy: -975731.4494935
S          2.11315       -0.90444       -0.16312
O          3.36122       -1.36163       -0.74123
O          1.11519       -0.35546       -1.11171
O          1.34431       -2.25094        0.38571
O          2.26099       -0.02352        1.01999
H          2.02546       -2.88194        0.65401
H          1.11275        1.09964        1.24754
S         -2.19482       -0.70141        0.10577
O         -3.58289       -0.35388       -0.10748
O         -1.45629       -0.06723        1.20084
O         -1.43805       -0.42263       -1.26071
H         -0.43289       -0.46414       -1.15632
C         -2.02657       -2.45963        0.30066
H         -2.54089       -2.73083        1.22334
H         -2.49249       -2.94029       -0.55929
H         -0.96125       -2.68863        0.36438
H          0.45029        3.98551        0.99053
H          1.97148        3.14915        0.58493
H          0.66877        3.70470       -1.48392
H          0.82099        1.95674       -1.27053
H         -1.61040        3.51461       -0.96289
H         -1.41608        1.94479       -1.43174
H          0.45443        2.13400        2.38685
H         -0.48823        1.61525        1.11794
C          0.88207        3.07942        0.55770
C          0.35580        2.85780       -0.86088
N          0.46371        1.92282        1.39181
N         -1.08641        2.66457       -0.79973
