40
1sa1msa2eda_145.log	Energy: -1095288.8064226
S         -0.58024       -2.07424       -0.47808
O          0.58779       -2.79681       -1.02564
O         -1.60143       -2.90629        0.14420
O          0.05463       -1.15166        0.68844
O         -1.14106       -1.09243       -1.45905
H         -0.13644       -0.17796        0.52199
H         -2.39073       -0.27773       -0.88401
S          0.45132        2.12347       -0.59328
O          0.53615        3.53609       -0.24220
O         -0.49358        1.34653        0.28317
O          1.77469        1.42824       -0.67833
H          2.22844       -0.17299       -0.60247
C         -0.24215        1.99261       -2.23499
H         -1.19237        2.52945       -2.24206
H          0.45328        2.45665       -2.93494
H         -0.38640        0.93282       -2.45341
H         -4.81420       -0.29888        0.84858
H         -3.54161       -1.55599        0.67754
H         -3.42945       -0.13323        2.83942
H         -1.94506       -0.20836        1.90060
H         -3.48222        2.11614        2.43910
H         -2.03533        1.99477        1.63193
H         -3.98669        0.10736       -1.25360
H         -3.12061        1.15539       -0.26310
C         -3.74228       -0.48527        0.74684
C         -2.96829        0.17466        1.89657
N         -3.28847        0.16539       -0.51692
N         -2.97788        1.62455        1.71454
H          4.98432       -0.18436        0.37831
H          4.83869       -0.84201        2.00747
H          3.77110       -2.42815        0.60315
H          2.44856       -1.54916        1.41164
H          3.39041       -1.10805       -1.34296
H          1.93686       -1.81819       -0.86011
H          4.22068        1.42479        2.12767
H          3.05049        1.26901        0.98462
C          4.26264       -0.39597        1.19030
C          3.28137       -1.45773        0.71272
N          3.57099        0.77261        1.70562
N          2.68330       -1.11944       -0.60994
