28
1sa1msa1eda_50.log	Energy: -975731.7843326
S          0.93606       -1.81934        0.03198
O          2.10042       -0.93494        0.21254
O          0.10955       -2.06870        1.20888
O          0.13949       -1.39794       -1.16048
O          1.62164       -3.22925       -0.37102
H          0.96480       -3.92855       -0.25091
S         -2.40034        0.59649        0.02006
O         -3.60889        1.32778       -0.28459
O         -1.11849        1.32614       -0.00898
O         -2.30507       -0.62201       -0.97593
H         -1.36194       -0.99001       -1.02560
C         -2.53601       -0.17157        1.61481
H         -2.58155        0.62802        2.35499
H         -3.45579       -0.75656        1.62157
H         -1.65844       -0.80553        1.76291
H          2.80791        2.75288       -1.35533
H          1.12445        3.34830       -1.21636
H          2.27739        3.71410        0.88371
H          1.04891        2.47062        1.12745
H          3.49954        2.12152        1.95652
H          2.80342        0.84430        1.20007
H          1.31157        1.12209       -2.26549
H          1.85908        0.48220       -0.82806
C          1.84424        2.60586       -0.86437
C          2.01740        2.67791        0.64848
N          1.32252        1.26639       -1.25777
N          3.10292        1.80875        1.07971
H          0.34789        1.15437       -0.90857
