41
1sa1msa1tma1eda_188.log	Energy: -1085204.3480752
S         -0.32374        0.44151        1.47194
O         -0.12505        0.10245       -0.00529
O         -1.04576       -0.62482        2.15086
O          0.93742        0.90841        2.03617
O         -1.25010        1.75305        1.44130
H         -2.09385        1.52355        0.98545
S         -3.51851       -0.41514       -0.71131
O         -4.52560       -0.56527       -1.73735
O         -3.35694        0.89492       -0.06724
O         -2.12758       -0.84041       -1.34301
H         -1.35648       -0.47264       -0.80345
C         -3.77169       -1.62588        0.56515
H         -4.72703       -1.39441        1.03786
H         -3.80335       -2.60769        0.09317
H         -2.95051       -1.54442        1.28117
H          4.25915       -3.30660        0.00280
H          4.60859       -2.20467        1.33973
H          2.19842       -2.71338        1.16715
H          2.52205       -0.99347        0.99347
H          1.91963       -2.81907       -1.21668
H          1.06073       -1.53030       -0.69521
H          5.77095       -1.47167       -0.60360
H          4.37966       -1.39537       -1.46427
C          4.13635       -2.26802        0.35429
C          2.65039       -1.96312        0.50226
N          4.77474       -1.29424       -0.53404
N          2.00450       -1.89053       -0.81262
N          1.98689        1.62432       -0.81961
C          1.23230        2.90029       -0.72341
H          0.27578        2.78172       -1.23245
H          1.05107        3.11239        0.33028
H          1.81895        3.69688       -1.18564
C          3.24023        1.66484       -0.01924
H          2.96379        1.80313        1.02582
H          3.78187        0.72254       -0.14866
H          3.84759        2.50083       -0.37551
C          2.23465        1.21576       -2.22400
H          2.63539        0.20100       -2.20707
H          1.28603        1.22293       -2.76221
H          2.93539        1.91645       -2.68277
H          1.34474        0.90350       -0.41933
