32
1sa1msa1a1eda_05.log	Energy: -1011243.4635246
S          0.42651        2.27858       -0.19239
O          1.62807        1.48055       -0.52370
O         -0.09633        1.84332        1.14850
O          0.51734        3.71155       -0.37191
O         -0.73528        1.81456       -1.22801
H         -0.78011        0.82578       -1.25096
S         -1.75977       -1.56773       -0.05393
O         -0.95237       -0.88167       -1.09983
O         -2.95562       -0.78407        0.35771
O         -0.92224       -2.00735        1.09023
C         -2.40710       -3.04764       -0.80540
H         -3.02844       -2.75513       -1.65185
H         -1.56620       -3.65755       -1.13579
H         -2.99647       -3.57592       -0.05595
N         -2.70985        1.82381        0.97693
H         -2.88556        0.80717        0.76166
H         -1.65972        1.91105        1.17977
H         -2.89895        2.37727        0.14308
H         -3.27791        2.14169        1.75612
H          2.09116       -2.74102       -0.08144
H          1.56370       -1.46928       -1.20756
H          4.05673       -1.81658       -1.35094
H          3.63856       -0.19351       -0.78748
H          4.69660       -2.36359        0.86199
H          5.12256       -0.78364        0.82754
H          0.65494       -1.25315        1.05548
H          2.25134       -0.95714        1.58839
C          2.17211       -1.67818       -0.32646
C          3.62344       -1.25288       -0.51506
N          1.60161       -0.90357        0.79960
N          4.33962       -1.42102        0.75136
H          1.53119        0.09257        0.49146
