35
1sa1msa1ma1eda_212.log	Energy: -1035885.1866780
S          0.16727        0.09471       -0.93869
O          1.38606        0.60457       -1.57204
O         -1.02646        0.09456       -1.80682
O          0.36391       -1.20108       -0.24036
O         -0.10800        1.17615        0.23342
H          1.57570       -0.98269        0.92092
H         -1.00837        1.01124        0.60363
S         -3.76505        0.10863        0.31521
O         -4.70109        1.17215        0.01462
O         -2.56639        0.44798        1.09929
O         -3.33025       -0.65937       -0.98811
H         -2.41057       -0.37352       -1.32119
C         -4.61808       -1.19853        1.16361
H         -5.01116       -0.77541        2.08843
H         -5.43027       -1.54243        0.52336
H         -3.90840       -1.99960        1.36639
N          2.90659        1.85226        0.72420
H          2.49876        1.77010       -0.20850
C          4.30223        2.29766        0.64815
H          4.42046        3.26395        0.14402
H          4.71622        2.38377        1.65696
H          4.86948        1.53881        0.10408
H          2.32746        2.52385        1.21969
H          4.44129       -1.24642        1.67273
H          3.29890       -2.61163        1.78615
H          4.52379       -2.67922       -0.32151
H          2.79667       -2.44550       -0.61313
H          4.61695       -0.95496       -1.76675
H          3.19753       -0.29111       -1.31046
H          2.14240       -0.70445        2.47268
H          2.67542        0.30468        1.21307
C          3.52915       -1.68230        1.25741
C          3.70531       -1.95819       -0.23234
N          2.41774       -0.72276        1.49331
N          4.04400       -0.74017       -0.95977
