41
1sa1msa1tma1eda_12.log	Energy: -1085220.0114018
S         -2.12881       -1.48135       -0.30087
O         -2.74893       -0.72322       -1.38745
O         -1.83505       -2.88881       -0.58469
O         -0.99219       -0.77663        0.34545
O         -3.22796       -1.48335        0.92858
H         -3.97970       -2.01857        0.64140
S          2.46745        1.41214       -0.21855
O          1.60017        2.45733       -0.82781
O          3.12282        0.51833       -1.19063
O          1.73607        0.66098        0.84853
C          3.77414        2.30025        0.61666
H          4.43108        1.57368        1.09607
H          4.32220        2.87478       -0.13054
H          3.32680        2.96219        1.35835
H         -1.88196        3.34985       -1.12122
H         -2.08834        1.64586       -1.61709
H         -4.18723        2.54296       -0.59688
H         -3.51413        1.19260        0.31372
H         -3.42673        4.00818        1.10883
H         -3.81791        2.69182        1.99987
H          0.00783        2.21392       -0.28709
H         -1.06144        2.39711        1.01263
C         -2.05894        2.32979       -0.76831
C         -3.34783        2.23821        0.04071
N         -0.92457        1.94638        0.10276
N         -3.20912        3.03010        1.26509
H         -0.90766        0.91081        0.25363
N          1.72537       -2.07453        0.35158
C          1.52324       -2.37458       -1.09287
H          0.45328       -2.43147       -1.28797
H          1.98921       -1.57178       -1.66596
H          1.99433       -3.33516       -1.31394
C          3.17027       -2.04892        0.69485
H          3.66261       -1.33214        0.03734
H          3.27583       -1.73519        1.73362
H          3.58144       -3.05152        0.55790
C          0.97706       -3.01222        1.22719
H          1.04610       -2.65567        2.25534
H         -0.06269       -3.04528        0.90651
H          1.43210       -4.00155        1.13928
H          1.37786       -1.10396        0.51548
