33
1sa1msa1ma1dma_185.log	Energy: -1001142.5368877
S         -0.47672       -0.33575       -0.80083
O          0.41832        0.81415       -1.05727
O         -1.63773       -0.41797       -1.68295
O          0.36150       -1.66044       -1.10172
O         -0.86672       -0.40130        0.64365
H          1.24585       -1.58659       -0.66812
H         -2.34119       -0.83070        0.82787
S          3.52368        0.01510        0.20511
O          4.54769        0.15261       -0.81038
O          2.70234       -1.20468        0.19939
O          2.57388        1.27309        0.23717
H          1.70716        1.10399       -0.27056
C          4.27083        0.16576        1.80967
H          4.99512       -0.64424        1.90014
H          4.76980        1.13333        1.86106
H          3.49109        0.08218        2.56556
N         -3.43715        1.83830       -0.59915
H         -2.89159        1.25378       -1.23193
C         -2.52929        2.70007        0.16637
H         -1.89701        3.34821       -0.45365
H         -3.11128        3.33145        0.84559
H         -1.86561        2.07327        0.76881
H         -4.04687        2.40638       -1.17838
N         -3.31974       -1.18533        1.09891
C         -4.09424       -1.53470       -0.11856
C         -3.97686       -0.15899        1.94544
H         -3.14529       -2.02810        1.64543
H         -4.28185       -0.60917       -0.66050
H         -3.49422       -2.19839       -0.73941
H         -5.03266       -2.00942        0.17498
H         -4.12629        0.72021        1.31218
H         -4.92954       -0.54387        2.31464
H         -3.31592        0.08087        2.77885
