27
1sa1msa1a1ma_105.log	Energy: -951829.9085668
S          1.05112       -1.06673       -0.01445
O          1.51489       -0.49904        1.26204
O          0.37760       -0.02772       -0.86117
O          2.10786       -1.77551       -0.75618
O         -0.04721       -2.17861        0.28117
H         -0.85292       -1.74355        0.65466
S         -2.78634        0.30673        0.16437
O         -3.96367        1.01813        0.60381
O         -2.25169       -0.76983        1.00750
O         -1.64506        1.37539       -0.08786
H         -0.79101        0.88956       -0.31927
C         -3.05252       -0.37834       -1.45802
H         -3.81114       -1.15573       -1.36044
H         -3.39836        0.42037       -2.11390
H         -2.10822       -0.79782       -1.80984
N          4.09439       -0.20400        0.26803
H          3.72973       -0.27011        1.22091
H          3.63169       -0.98604       -0.24355
H          3.68154        0.71727       -0.17227
H          5.10751       -0.25904        0.24154
N          2.72349        1.90413       -0.73522
H          3.10663        2.52423       -1.44254
C          2.19491        2.67746        0.40340
H          1.43461        3.40620        0.10529
H          1.74766        1.97806        1.11334
H          3.01450        3.20697        0.89682
H          1.95018        1.39153       -1.16595
