30
1sa1msa1a1dma_73.log	Energy: -976494.9003047
S         -0.70776       -1.29899       -0.41616
O          0.59800       -1.95138       -0.64782
O         -1.83250       -2.20593       -0.22146
O         -0.58799       -0.54423        1.02280
O         -0.97022       -0.20639       -1.38996
H          0.26364       -0.04584        1.03827
H         -2.16061        0.72759       -0.74305
S          2.99700        0.36014        0.25356
O          3.90462       -0.20880        1.22908
O          1.70183        0.86760        0.74085
O          2.74859       -0.61936       -0.94955
H          1.88394       -1.15743       -0.84848
C          3.81413        1.68456       -0.60275
H          4.06777        2.43833        0.14298
H          4.71625        1.28114       -1.06238
H          3.13386        2.08421       -1.35377
N         -3.59741       -0.71430        1.65590
H         -4.53301       -0.97873        1.94562
H         -3.02505       -0.62658        2.49067
H         -3.19066       -1.48625        1.11955
N         -2.88719        1.25840       -0.19178
C         -4.01396        1.61669       -1.07117
C         -2.23234        2.40268        0.46994
H         -3.22214        0.56894        0.54865
H         -3.66413        2.28051       -1.86357
H         -4.41476        0.70420       -1.51340
H         -4.79064        2.11620       -0.48850
H         -1.85201        3.09289       -0.28495
H         -2.95134        2.91555        1.11200
H         -1.40245        2.02260        1.06534
