35
1sa1msa1ma1eda_190.log	Energy: -1035884.8900040
S          1.33145       -0.08782        0.63725
O          0.78226       -0.63455       -0.63942
O          0.30890        0.47159        1.52673
O          1.99356       -1.30020        1.39149
O          2.40784        0.90603        0.34357
H          2.36656       -1.97529        0.69337
H          1.74151        2.32994        0.60409
S         -2.74093       -1.07862       -0.17648
O         -3.91157       -1.85023       -0.54069
O         -2.63992        0.31210       -0.61922
O         -1.47974       -1.88496       -0.69587
H         -0.63293       -1.33675       -0.66563
C         -2.53741       -1.11087        1.59112
H         -3.39363       -0.58861        2.02035
H         -2.52754       -2.15358        1.90882
H         -1.60051       -0.60484        1.83718
N          2.83929       -2.85484       -0.52283
H          3.07531       -3.82139       -0.32304
C          3.94202       -2.16412       -1.20641
H          4.21247       -2.62583       -2.16244
H          3.64611       -1.12757       -1.38116
H          4.81778       -2.15870       -0.55380
H          2.00667       -2.85237       -1.10687
H          0.64315        4.66583       -0.85918
H          1.71134        3.36320       -1.44838
H         -0.72695        3.09590       -2.19255
H         -0.12212        1.71924       -1.27239
H         -2.03923        3.68176       -0.35503
H         -1.91514        2.07280       -0.04434
H          1.68265        3.96349        1.09133
H          0.25976        3.05507        1.04049
C          0.85240        3.59362       -0.81602
C         -0.38798        2.77807       -1.19980
N          1.18034        3.23601        0.59074
N         -1.38512        2.93629       -0.14636
