33
1sa1msa1ma1dma_177.log	Energy: -1001146.7085518
S         -0.42280       -0.97986       -0.32543
O         -1.67867       -1.67037       -0.06960
O          0.77604       -1.84149       -0.39554
O         -0.48848       -0.02906       -1.47169
O         -0.23481       -0.04402        0.98632
H         -1.74593        0.94565       -1.27556
H          0.67863        0.32899        0.97204
S          3.49237        0.16690        0.30106
O          4.28058       -0.37221        1.39048
O          2.27732        0.92535        0.64299
O          3.13082       -0.94107       -0.75406
H          2.18313       -1.30533       -0.62953
C          4.52194        1.21105       -0.70186
H          4.86489        2.02668       -0.06465
H          5.36617        0.61689       -1.05141
H          3.93002        1.58449       -1.53649
N         -2.49466        1.65146       -1.00453
H         -2.82708        2.10831       -1.85067
C         -1.91243        2.62379       -0.05105
H         -2.67614        3.33398        0.26914
H         -1.53236        2.06161        0.80189
H         -1.08270        3.15007       -0.52308
H         -3.31822        1.13264       -0.53939
N         -4.51536        0.32336        0.33826
C         -3.93801        0.05403        1.66393
C         -4.83188       -0.91452       -0.38898
H         -5.36998        0.86038        0.45754
H         -2.98668       -0.46729        1.53459
H         -3.75824        1.00013        2.18205
H         -4.59650       -0.56932        2.28411
H         -3.90124       -1.45597       -0.57325
H         -5.51147       -1.56441        0.17901
H         -5.29940       -0.66709       -1.34602
