32
1sa1msa1a1eda_303.log	Energy: -1011222.7516835
S          0.26982        0.98474       -0.29355
O          1.48138        1.53629       -0.92929
O         -0.30368       -0.16200       -1.03674
O          0.48376        0.67002        1.14171
O         -0.78916        2.17111       -0.37474
H          2.14956        1.07722        1.61498
H         -1.68064        1.81128       -0.14940
S         -3.60096       -0.44438        0.03314
O         -4.62252       -0.61582       -0.97896
O         -3.09520        0.91149        0.28845
O         -2.38403       -1.41116       -0.22974
H         -1.55291       -0.91366       -0.54477
C         -4.19804       -1.10022        1.57327
H         -5.08448       -0.52563        1.84351
H         -4.45204       -2.14875        1.41846
H         -3.41493       -0.98952        2.32257
N          3.08889        1.40995        1.30682
H          3.79906        0.61257        1.28359
H          3.40624        2.19040        1.87380
H          2.88679        1.71186        0.33753
H          4.91372       -2.57606       -0.06999
H          3.80234       -2.40806        1.29930
H          2.63648       -2.40905       -0.93737
H          2.29754       -0.99931        0.04080
H          3.86988       -1.06481       -2.38617
H          2.85450        0.08846       -1.80250
H          5.67251       -0.90483        1.51610
H          5.31099       -0.23411        0.05694
C          4.21777       -1.88807        0.43071
C          3.08914       -1.49807       -0.52524
N          4.91068       -0.66972        0.88777
N          3.58129       -0.57524       -1.54727
