40
1sa1msa2eda_42.log	Energy: -1095295.8055064
S          2.23848       -1.86608       -0.30436
O          1.38137       -2.65068       -1.19463
O          2.94678       -0.74979       -0.96940
O          1.56544       -1.44962        0.94734
O          3.40655       -2.85795        0.24235
H          3.88690       -3.20074       -0.52339
S         -2.09551        1.80283       -0.15330
O         -1.29946        2.94559        0.32061
O         -2.90212        1.09950        0.85724
O         -1.21920        0.82092       -0.91372
C         -3.23435        2.43247       -1.37724
H         -3.80090        1.59581       -1.78658
H         -3.89893        3.13887       -0.87900
H         -2.66301        2.93036       -2.16079
H         -1.83692       -2.72777        1.93593
H         -2.20226       -0.97598        1.92699
H         -4.24606       -2.31328        1.41711
H         -3.77546       -1.24272        0.09788
H         -3.40473       -4.15371        0.15152
H         -4.04628       -3.22221       -1.03111
H         -0.14733       -1.67492        0.65748
H         -1.18574       -2.42538       -0.41952
C         -2.14888       -1.87986        1.31941
C         -3.48665       -2.14628        0.64200
N         -1.11573       -1.67713        0.27811
N         -3.34109       -3.25065       -0.30555
H         -1.24247       -0.76167       -0.21267
H          0.83885        2.44662        1.16764
H          1.62061        0.84934        1.35400
H          3.17537        2.69548        2.05922
H          3.79966        1.79159        0.67321
H          2.52386        4.43140        0.52812
H          4.00659        3.99082       -0.01200
H          0.43689        1.31256       -0.80555
H          1.71292        2.38814       -1.12268
C          1.65922        1.80713        0.83289
C          3.01367        2.48269        0.99443
N          1.43761        1.54232       -0.61364
N          3.05861        3.66501        0.13179
H          2.03209        0.74186       -0.91534
