28
1sa1msa1eda_148.log	Energy: -975721.2580495
S          1.63037        1.77241        0.11892
O          2.25183        2.83989        0.88550
O          2.51893        0.97414       -0.73386
O          0.69139        0.89959        0.88707
O          0.56562        2.52019       -0.90125
H          0.99438        3.32735       -1.21403
S         -2.89169       -0.37345        0.08437
O         -1.98420       -1.21943       -0.68330
O         -3.23638       -0.75088        1.44352
O         -4.27224       -0.30424       -0.76437
H         -4.99458       -0.58023       -0.18158
C         -2.33647        1.30213        0.00230
H         -1.36423        1.33907        0.50567
H         -2.21633        1.57090       -1.04686
H         -3.07536        1.92875        0.50093
H          1.35425       -2.88330       -1.46829
H          1.69313       -1.13683       -1.67795
H          3.78033       -2.42111       -1.11011
H          3.37022       -1.17873        0.07310
H          3.06851       -4.07141        0.42801
H          3.65648       -2.95754        1.47174
H         -0.26245       -1.74702       -0.19243
H          0.92009       -2.29498        0.88723
C          1.68667       -1.96691       -0.97204
C          3.05902       -2.14515       -0.33173
N          0.71621       -1.65751        0.10850
N          2.95665       -3.11917        0.75819
H          0.81191       -0.65595        0.44732
