41
1sa1msa1tma1eda_96.log	Energy: -1085214.5204806
S          0.11253       -2.02828        0.04711
O          0.78412       -0.90378       -0.88711
O         -0.78547       -2.83788       -0.77648
O          1.30909       -2.75267        0.55113
O         -0.60243       -1.27739        1.10981
H          2.51252       -1.75035        0.70725
H         -2.03287       -0.48386        0.25812
S         -0.35763        2.37976       -0.04149
O         -1.46810        3.33780       -0.00885
O          0.93659        2.88504       -0.54048
O         -0.76779        1.11129       -0.75384
H          0.20204       -0.07127       -0.89014
C         -0.05815        1.87830        1.65317
H          0.25543        2.76301        2.20874
H         -0.97770        1.46801        2.07061
H          0.71680        1.11189        1.66155
H          5.19981       -0.73922       -0.07511
H          4.03097       -1.65146       -1.06190
H          4.32855        0.86890       -1.66607
H          2.66792        0.30597       -1.42931
H          4.16354        2.01424        0.37208
H          2.56300        2.02780       -0.03554
H          3.92758       -1.58714        1.59632
H          3.07681       -0.18554        1.21107
C          4.14651       -0.83024       -0.35375
C          3.61402        0.49752       -0.92280
N          3.36916       -1.13183        0.87937
N          3.36299        1.42359        0.17720
N         -3.03593       -0.50041       -0.02518
C         -3.60330       -1.72637        0.59120
H         -3.05027       -2.58417        0.20756
H         -3.47142       -1.66574        1.67123
H         -4.66348       -1.79355        0.33749
C         -3.66802        0.73966        0.49066
H         -3.56511        0.75683        1.57668
H         -3.16086        1.60541        0.06054
H         -4.72631        0.73401        0.22015
C         -3.08528       -0.56743       -1.51123
H         -2.61782        0.33404       -1.90394
H         -2.52303       -1.44785       -1.82502
H         -4.13096       -0.64104       -1.81893
