40
1sa1msa2eda_233.log	Energy: -1095280.2257076
S         -0.34922       -1.35716       -1.00667
O          0.74761       -2.31851       -1.07532
O         -0.20590       -0.45422        0.23593
O         -0.38947       -0.41160       -2.18593
O         -1.69568       -2.02838       -0.89319
H          0.32811        0.91768       -1.84674
H         -2.82385       -1.22685       -0.58524
S          3.23470        0.00493        0.79015
O          4.22531        0.49700        1.72544
O          3.09716        0.73190       -0.48889
O          1.85154       -0.02235        1.52181
H          1.02466       -0.28244        0.92083
C          3.55223       -1.69562        0.39233
H          4.49756       -1.72633       -0.15049
H          3.62669       -2.24424        1.33128
H          2.72405       -2.06289       -0.22095
H         -5.06945       -0.86459        1.40689
H         -3.80866       -2.13070        1.28262
H         -3.25650       -0.61856        3.09649
H         -2.07528       -0.39926        1.80087
H         -3.29370        1.64122        2.91426
H         -3.10718        1.67387        1.28430
H         -4.52057       -1.04908       -0.85875
H         -3.67127        0.29400       -0.38497
C         -4.02133       -1.06485        1.17364
C         -3.12545       -0.23356        2.08147
N         -3.76941       -0.72160       -0.25554
N         -3.53985        1.16910        2.05342
H         -1.39943        3.45063       -1.66306
H         -1.50540        3.55461        0.08500
H          0.85531        3.61443       -0.54474
H          0.50256        2.14337        0.37093
H          1.01104        2.32385       -2.51324
H          1.82258        1.46408       -1.31650
H         -1.94002        1.23814       -1.64273
H         -1.48025        0.99344       -0.13683
C         -1.19252        2.90149       -0.73764
C          0.30983        2.66736       -0.56822
N         -1.98401        1.66932       -0.72106
N          0.89472        1.81625       -1.63872
