30
1sa1msa2ma_138.log	Energy: -976476.7780885
S          2.06757       -0.53777       -0.36914
O          3.30366       -0.51568       -1.17447
O          1.19685       -1.69854       -0.61252
O          2.35549       -0.32133        1.07760
O          1.27862        0.76342       -0.87094
H          3.88462        0.36305        1.19445
H          0.34483        0.72222       -0.54369
S         -2.03573       -0.75697        0.12210
O         -2.80170       -1.04408       -1.07651
O         -1.20719        0.46111        0.12161
O         -1.12533       -1.98789        0.52409
H         -0.21529       -1.91898        0.09645
C         -3.11406       -0.69719        1.52243
H         -3.83944        0.10105        1.31467
H         -3.60948       -1.66513        1.60236
H         -2.51486       -0.48606        2.40757
N         -5.09079        1.65833        0.26597
H         -5.86149        1.17398       -0.18193
C         -4.17440        2.20180       -0.74123
H         -4.62280        2.96175       -1.39693
H         -3.30829        2.64224       -0.24074
H         -3.80423        1.38333       -1.36250
H         -5.49399        2.40221        0.82558
N          4.71806        0.76441        0.68193
H          5.59489        0.52620        1.13784
C          4.53673        2.22029        0.47193
H          5.32879        2.60009       -0.17261
H          3.56800        2.36418       -0.00739
H          4.55232        2.73014        1.43449
H          4.60330        0.25087       -0.21997
