41
1sa1msa1tma1eda_69.log	Energy: -1085217.1938655
S          2.98299        0.59739        0.08670
O          3.43061       -0.79987       -0.15000
O          2.56097        1.33905       -1.09118
O          2.01038        0.65074        1.20964
O          4.31062        1.38001        0.59693
H          4.71812        0.85825        1.30112
S         -2.79740       -0.88187        0.10751
O         -2.41012       -2.30046       -0.03871
O         -2.65226       -0.07854       -1.12598
O         -2.10982       -0.22048        1.26872
C         -4.53435       -0.88053        0.52999
H         -4.66167       -1.43504        1.45987
H         -4.86058        0.15279        0.65170
H         -5.07788       -1.36183       -0.28348
H          0.34676        2.75683       -1.01820
H         -0.71580        1.36643       -1.35249
H         -1.88446        3.50575       -1.88585
H         -2.68954        2.56489       -0.62827
H         -1.07590        4.97887       -0.18894
H         -2.59055        4.65540        0.33734
H          0.50199        1.46922        0.90038
H         -0.65553        2.65013        1.26097
C         -0.57991        2.25321       -0.73392
C         -1.79797        3.15940       -0.84836
N         -0.45043        1.82672        0.68391
N         -1.68962        4.23911        0.13629
H         -1.14376        1.06326        0.91821
N          1.22123       -2.37744       -0.23242
C          0.45786       -1.57447       -1.22779
H          0.32656       -0.57230       -0.82458
H          1.04041       -1.51766       -2.14761
H         -0.52038       -2.02904       -1.38401
C          1.43976       -3.75882       -0.71742
H          1.94630       -3.71987       -1.68235
H          2.05954       -4.29632        0.00092
H          0.47123       -4.25158       -0.82090
C          0.57522       -2.35656        1.11138
H          1.16941       -2.97749        1.78333
H          0.57181       -1.32751        1.46820
H         -0.44946       -2.71989        1.01676
H          2.14899       -1.89752       -0.14254
