41
1sa1msa1tma1eda_47.log	Energy: -1085220.5171242
S          0.59261       -1.67578       -1.26954
O          0.32830       -3.09182       -1.44886
O          1.50357       -0.99882       -2.19011
O         -0.88443       -0.98082       -1.48746
O          0.90246       -1.31512        0.16392
H          1.68261        0.18075       -0.01105
S         -1.09203        2.28473       -0.16340
O         -0.02898        2.61665        0.82616
O         -2.20378        1.49571        0.40417
O         -0.50629        1.65491       -1.38687
H         -0.76654        0.00524       -1.57234
C         -1.78103        3.83959       -0.69912
H         -2.20905        4.33664        0.17166
H         -0.97950        4.43886       -1.13091
H         -2.54988        3.63020       -1.44291
H          2.87620        1.01325        2.31190
H          4.61935        0.93915        2.04326
H          3.75970        2.29507        0.27977
H          4.11843        0.70664       -0.45305
H          1.43753        1.79992        0.29070
H          1.96059        1.27255       -1.19226
H          3.88828       -1.26892        2.44263
H          2.80020       -1.23401        1.21014
C          3.65599        0.60714        1.64394
C          3.49103        1.23642        0.26622
N          3.67894       -0.84511        1.54711
N          2.08134        1.13414       -0.18707
N         -2.08160       -1.54898        1.00047
C         -3.53131       -1.25757        0.86600
H         -3.65842       -0.17686        0.82217
H         -3.89139       -1.71228       -0.05734
H         -4.05607       -1.68337        1.72391
C         -1.80510       -3.00976        0.95857
H         -2.15392       -3.40816        0.00628
H         -0.72884       -3.16138        1.02573
H         -2.32416       -3.48617        1.79316
C         -1.49464       -0.91642        2.21161
H         -0.42161       -1.10363        2.19218
H         -1.68738        0.15472        2.16065
H         -1.95636       -1.36460        3.09451
H         -1.61635       -1.13913        0.16386
