33
1sa1msa1a1tma_33.log	Energy: -1001156.6349735
S          1.43646       -1.71574       -0.22625
O          1.52358       -0.31117        0.17919
O          0.49755       -1.78333       -1.49606
O          2.64238       -2.43895       -0.51565
O          0.64775       -2.51006        0.87763
H         -0.23914       -2.07127        1.05568
S         -2.22912       -0.28060        0.30273
O         -2.49079        0.98088        1.00746
O         -1.69028       -1.37237        1.14941
O         -1.35431       -0.05010       -0.91023
H         -0.27469       -1.15376       -1.35840
C         -3.77968       -0.87896       -0.33769
H         -4.18637       -0.12427       -1.01086
H         -3.59433       -1.81426       -0.86593
H         -4.44702       -1.04184        0.50886
N          3.87457        1.38241        1.05807
H          3.35536        0.51541        0.93194
H          4.08028        1.47798        2.04727
H          4.76406        1.27378        0.58145
N          0.22905        2.25733       -0.34516
C          0.43041        2.50781        1.10844
H         -0.48312        2.21762        1.62824
H          1.27631        1.90885        1.44050
H          0.64335        3.56937        1.24996
C          1.46997        2.50804       -1.12524
H          2.30518        2.01533       -0.62692
H          1.33062        2.11699       -2.13365
H          1.64344        3.58575       -1.15908
C         -0.92423        3.02907       -0.87623
H         -1.06055        2.77393       -1.92712
H         -1.81159        2.74844       -0.30877
H         -0.70936        4.09415       -0.76877
H         -0.02113        1.25597       -0.44800
