38
1sa1msa1dma1eda_138.log	Energy: -1060548.7172538
S          1.25221       -0.11195       -0.78407
O          0.20643       -0.57100        0.19870
O          1.94160       -1.21700       -1.44356
O          0.67965        0.91649       -1.68349
O          2.30762        0.67092        0.10346
H         -0.73088        1.53186       -1.13793
H          3.07196        0.00982        0.36375
S         -3.04352       -1.28566        0.23837
O         -3.33107       -0.26865       -0.78911
O         -3.02004       -0.81088        1.61448
O         -1.74356       -2.06922       -0.12626
H         -0.88305       -1.47542       -0.03735
C         -4.23787       -2.58582        0.06026
H         -4.17816       -2.97372       -0.95604
H         -4.00985       -3.35943        0.79283
H         -5.21592       -2.14435        0.25278
N          4.18003       -1.08088        0.54024
C          4.76863       -1.21198        1.87001
C          5.16693       -0.85818       -0.51780
H          3.63990       -1.91116        0.30708
H          5.25543       -0.27024        2.14010
H          3.98160       -1.41226        2.60043
H          5.51799       -2.01457        1.92199
H          5.65782        0.10549       -0.35281
H          5.93586       -1.64271       -0.54406
H          4.64759       -0.82707       -1.47744
H         -2.26066        2.44408        1.24730
H         -0.97216        1.21741        1.19678
H         -0.06598        3.43858        1.94208
H          0.66161        2.88888        0.43118
H         -1.30292        5.03470        0.71771
H          0.05837        4.98985       -0.18873
H         -2.35872        1.23754       -0.80596
H         -1.80790        2.82641       -1.10659
C         -1.32116        2.15717        0.76767
C         -0.26806        3.25155        0.88013
N         -1.59595        1.92384       -0.67385
N         -0.72078        4.43509        0.14342
