32
1sa1msa1a1eda_49.log	Energy: -1011241.1934338
S          0.84476        2.23329       -0.15292
O          2.04570        2.92701       -0.58722
O          0.36291        1.23963       -1.33909
O          1.08740        1.31537        1.01481
O         -0.36575        3.03969        0.08329
H          2.40198        0.55659        1.07812
H         -1.42028        1.70982        0.62339
S          0.76362       -2.07621       -0.09285
O         -0.62114       -1.62008        0.17722
O          1.56196       -2.33801        1.13367
O          1.49705       -1.17909       -1.03538
H          0.85150        0.37904       -1.29521
C          0.60252       -3.64520       -0.92405
H          0.05595       -3.48396       -1.85336
H          1.60275       -4.02757       -1.12746
H          0.05829       -4.32185       -0.26508
N          3.21444       -0.15708        1.07857
H          2.76214       -1.08081        1.26433
H          3.92955        0.07760        1.75970
H          3.60268       -0.18487        0.13769
H         -3.32644        1.58500       -0.69052
H         -2.12027        0.50755       -1.41955
H         -4.36988       -0.63073       -1.22397
H         -3.12222       -1.44040       -0.26210
H         -5.25437        0.26767        0.79107
H         -4.76887       -1.20967        1.30151
H         -2.51613        0.70197        1.46597
H         -1.21746        0.02721        0.64659
C         -2.77761        0.64835       -0.56137
C         -3.72057       -0.52857       -0.34495
N         -1.91917        0.79413        0.63845
N         -4.44583       -0.33269        0.91228
