28
1sa1msa1eda_71.log	Energy: -975731.8583222
S          1.57631        1.56076        0.05352
O          0.47257        1.45988        1.08029
O          2.46600        2.67963        0.21844
O          2.21717        0.21959       -0.04131
O          0.83044        1.80806       -1.34983
H          1.46759       -0.88777        0.88960
H          0.15382        1.11552       -1.49570
S         -2.12708        0.11618       -0.06276
O         -1.89715       -0.94449        0.92928
O         -1.33709       -0.00485       -1.29417
O         -1.93298        1.52127        0.57592
H         -0.90595        1.63393        0.81101
C         -3.85075        0.16314       -0.46266
H         -4.09618       -0.79399       -0.92324
H         -4.40958        0.30816        0.46130
H         -4.01427        0.98446       -1.15974
H         -0.12487       -2.33961       -0.92446
H          0.54637       -3.97355       -0.93925
H          0.06352       -3.49707        1.34108
H          1.83999       -3.39209        1.15922
H         -0.12233       -1.18531        1.33866
H          1.10552       -1.51662        2.40323
H          2.01021       -2.77383       -2.25049
H          2.14228       -1.51836       -1.20516
C          0.75362       -2.94094       -0.64227
C          0.88465       -2.94628        0.87664
N          1.99935       -2.52399       -1.26927
N          0.84058       -1.55648        1.42106
