32
1sa1msa1a1eda_177.log	Energy: -1011228.6113042
S         -2.05857        0.14193        0.67864
O         -1.76525       -1.31380        0.49136
O         -3.33895        0.37280        1.32738
O         -0.89273        0.86731        1.22869
O         -2.16063        0.74653       -0.82169
H          0.07949        1.40973        0.03651
H         -3.02051        0.39486       -1.22289
S          1.68347       -1.59705       -0.07003
O          2.43658       -0.81068        0.90526
O          1.26487       -0.87858       -1.28155
O          0.47863       -2.32074        0.58542
H         -0.45583       -1.81609        0.53678
C          2.66981       -2.99617       -0.54465
H          2.91289       -3.56037        0.35556
H          2.09566       -3.60162       -1.24503
H          3.57414       -2.60690       -1.01311
N         -4.53074       -0.34568       -1.43859
H         -4.41266       -1.34477       -1.57476
H         -5.21165       -0.00835       -2.10967
H         -4.89961       -0.20755       -0.49949
H          1.57752        3.49574       -1.49151
H          0.42137        3.77113       -0.15619
H          2.78905        3.84509        0.63559
H          1.89161        2.53105        1.39656
H          4.23266        2.25103       -0.01927
H          3.20607        1.01272        0.34063
H         -0.22179        1.84075       -1.51116
H          1.21020        1.08157       -1.15446
C          1.18480        3.09763       -0.55325
C          2.31852        2.87578        0.44564
N          0.53898        1.79521       -0.83225
N          3.27947        1.92585       -0.10162
