30
1sa1msa2ma_150.log	Energy: -976477.4735259
S          1.43512       -0.38404       -0.48794
O          2.05865        0.94854       -0.24940
O          0.30497       -0.35371       -1.42495
O          2.47755       -1.38017       -0.83907
O          0.88731       -0.88429        0.92483
H          4.01268       -0.73534       -0.54705
H         -0.09042       -0.75053        0.99729
S         -2.84045       -0.34213        0.27536
O         -3.50899        0.82311        0.82278
O         -1.81063       -1.01456        1.07578
O         -2.27222       -0.03374       -1.16648
H         -1.26809       -0.06116       -1.18841
C         -4.07923       -1.55043       -0.13213
H         -4.58006       -1.81984        0.79814
H         -4.78280       -1.09501       -0.82897
H         -3.58782       -2.41501       -0.57681
N          4.54340        0.06591       -0.11327
H          5.34224        0.33968       -0.67897
C          4.89214       -0.24322        1.29198
H          5.31944        0.63919        1.76734
H          3.97343       -0.53119        1.80311
H          5.60271       -1.06867        1.31934
H          3.77468        0.78026       -0.15639
N         -0.65339        1.93941        0.64526
H         -1.32757        2.16591        1.36818
C         -0.80581        2.82138       -0.50796
H         -0.65332        3.88976       -0.29209
H         -0.08686        2.52029       -1.27462
H         -1.80979        2.69556       -0.92219
H          0.28118        2.01985        1.03030
