38
1sa1msa1dma1eda_13.log	Energy: -1060565.5360073
S          2.86284        0.56972       -0.09043
O          3.52137       -0.60731       -0.65734
O          2.48132        1.60235       -1.07681
O          1.74651        0.25170        0.83274
O          3.93613        1.27347        0.91160
H          4.74302        1.44708        0.40820
S         -2.45956       -1.01957        0.02668
O         -2.94786       -0.01010        0.97986
O         -1.89156       -2.24133        0.65995
O         -1.51062       -0.44967       -0.98509
C         -3.87712       -1.57423       -0.90549
H         -4.58619       -2.01582       -0.20485
H         -4.31769       -0.70918       -1.40170
H         -3.54590       -2.31184       -1.63634
N          0.81412       -2.27652        0.27397
C          0.98301       -2.55007       -1.17214
C          1.64334       -3.13029        1.14753
H          1.08190       -1.28635        0.46227
H          0.73116       -3.59447       -1.36500
H          0.30034       -1.89525       -1.71406
H          2.01676       -2.33866       -1.44786
H          1.39678       -4.17855        0.97145
H          2.69385       -2.94344        0.91947
H          1.44105       -2.87163        2.18683
H         -0.20178       -2.35128        0.51216
H         -0.49458        3.97688       -0.61052
H         -1.23805        2.99605       -1.89702
H         -2.90314        3.96283       -0.18920
H         -2.98733        2.20877       -0.39190
H         -2.38257        3.56102        1.98899
H         -2.44993        1.92821        1.70931
H          0.74338        1.93010       -0.77760
H         -0.16707        1.93032        0.62081
C         -1.05861        3.06506       -0.82206
C         -2.36274        3.02632       -0.01764
N         -0.22544        1.91783       -0.40514
N         -2.06010        2.81169        1.39308
H         -0.67618        1.00819       -0.65724
