33
1sa1msa1a1tma_36.log	Energy: -1001154.8431390
S         -0.79600       -1.97337        0.26307
O         -1.21938       -0.72826        0.96535
O          0.61213       -2.31301        0.64129
O         -1.73090       -3.06896        0.31804
O         -0.71129       -1.54959       -1.30157
H          0.12268       -1.04356       -1.42870
S          2.32502        0.50747       -0.23571
O          2.14718        1.89042        0.18369
O          1.49190        0.04563       -1.36063
O          2.15491       -0.43907        0.98107
H          1.47386       -1.25835        0.83195
C          4.02525        0.26733       -0.69039
H          4.23430        0.92028       -1.53812
H          4.64317        0.53620        0.16634
H          4.16280       -0.77986       -0.95893
N         -0.24824        1.87959        2.24419
H          0.67871        2.09453        1.88273
H         -0.34465        0.86641        2.19124
H         -0.25448        2.13252        3.22695
N         -2.24608        1.32050       -0.39516
C         -1.15840        2.11693       -1.01828
H         -0.54032        2.53078       -0.22155
H         -0.54888        1.46081       -1.63979
H         -1.60359        2.91311       -1.61988
C         -3.10315        0.65464       -1.40633
H         -2.47636        0.01302       -2.02527
H         -3.83829        0.03784       -0.88823
H         -3.60399        1.41494       -2.00976
C         -3.03510        2.13254        0.56464
H         -3.77884        1.48802        1.03484
H         -2.33887        2.51168        1.31604
H         -3.52783        2.94465        0.02444
H         -1.79171        0.54480        0.15900
