33
1sa1msa1ma1dma_06.log	Energy: -1001169.8645548
S          2.69810       -0.15562        0.09193
O          2.94228        1.13894        0.72799
O          2.70379       -1.32543        0.96961
O          1.49530       -0.12984       -0.80314
O          3.88505       -0.37414       -1.00447
H          4.72959       -0.35244       -0.53427
S         -2.76628       -0.12573       -0.10392
O         -2.60423       -1.20736       -1.10610
O         -2.59253        1.24095       -0.66765
O         -1.90040       -0.34336        1.09190
C         -4.45601       -0.20288        0.45885
H         -5.10549       -0.04181       -0.40166
H         -4.62641       -1.18868        0.89174
H         -4.60326        0.57748        1.20555
N         -0.19669       -2.18469       -0.12368
H         -1.01397       -2.17486       -0.75719
H          0.49013       -1.48712       -0.48618
C          0.42401       -3.50751        0.08698
H          1.27303       -3.38202        0.75814
H         -0.31083       -4.19093        0.51255
H          0.77327       -3.89182       -0.87116
H         -0.57707       -1.75979        0.73441
N         -0.04485        2.07971       -0.10963
C          0.51506        3.19522       -0.89857
C         -0.00154        2.29082        1.35668
H         -1.03090        1.86947       -0.39058
H          1.56681        3.31503       -0.63499
H          0.42480        2.95582       -1.95809
H         -0.03895        4.10885       -0.67740
H          1.04120        2.36320        1.66647
H         -0.54775        3.20494        1.59602
H         -0.48609        1.43474        1.82698
H          0.50038        1.22451       -0.34389
