24
1sa1msa2a_82.log	Energy: -927162.6953262
S          1.66850       -0.32897        0.58729
O          0.60833        0.18455        1.44846
O          2.88674       -0.83313        1.17353
O          1.09259       -1.48670       -0.31444
O          1.99732        0.82093       -0.42859
H          0.18557       -1.23798       -0.65741
H          2.89790        0.59882       -0.91633
S         -2.47018       -0.41283       -0.27863
O         -3.53762       -1.38070       -0.36891
O         -1.25181       -0.61829       -1.08404
O         -2.03636       -0.31504        1.24836
H         -1.07877       -0.07734        1.33597
C         -3.07563        1.21162       -0.63742
H         -3.34924        1.22118       -1.69346
H         -3.95195        1.37903       -0.01069
H         -2.27099        1.92533       -0.41651
N          4.26624        0.11614       -1.47616
H          4.16097       -0.55172       -2.23412
H          4.68579       -0.37264       -0.68798
H          4.90625        0.84294       -1.78010
N         -0.38612        2.87256        0.25617
H          0.36183        2.44878       -0.28628
H         -0.18571        2.64947        1.22629
H         -0.31532        3.87921        0.15146
