36
1sa1msa1ma1tma_05.log	Energy: -1025826.2812314
S         -2.67474       -0.28392        0.18401
O         -2.54094       -1.50082        1.01107
O         -3.04567        0.92071        0.93176
O         -1.53963       -0.09481       -0.74302
O         -3.90912       -0.57897       -0.84704
H         -4.72211       -0.62405       -0.32614
S          2.62741       -0.38929        0.21960
O          2.92548        0.78084        1.06384
O          1.53481       -0.12004       -0.76840
O          2.36831       -1.64553        0.97642
C          4.09521       -0.71000       -0.74767
H          4.33057        0.18573       -1.32331
H          4.90577       -0.94537       -0.05760
H          3.89770       -1.55227       -1.41100
N         -0.08722       -2.37245        0.05362
H         -0.14004       -1.52207       -0.52952
H          0.80365       -2.26366        0.58580
C         -0.11197       -3.59576       -0.76743
H         -0.04863       -4.46933       -0.11883
H         -1.04186       -3.62499       -1.33549
H          0.73849       -3.58271       -1.44896
H         -0.91698       -2.29665        0.66680
N          0.10989        2.29479       -0.24617
C          1.36044        2.94905       -0.71169
H          2.20163        2.49432       -0.18829
H          1.45620        2.79191       -1.78619
H          1.29431        4.01642       -0.49005
C         -1.08637        2.87742       -0.90896
H         -1.02747        2.67385       -1.97799
H         -1.98050        2.41911       -0.49021
H         -1.08616        3.95452       -0.72676
C         -0.00624        2.34489        1.23894
H         -0.92716        1.83661        1.52738
H          0.87216        1.85520        1.66209
H         -0.04520        3.39308        1.54416
H          0.18191        1.29075       -0.50197
