26
1sa1msa1dma_77.log	Energy: -940969.9446501
S         -2.12204       -0.68853        0.09122
O         -1.15724       -0.10950        1.01011
O         -3.41861       -0.10197       -0.08987
O         -1.47404       -0.85853       -1.32747
O         -2.28327       -2.20100        0.60889
H         -0.50936       -1.11272       -1.24891
H         -3.06295       -2.59905        0.19368
S          2.00744       -0.71822       -0.16558
O          2.39906        0.54767       -0.74876
O          1.03467       -1.53938       -0.90724
O          1.47159       -0.52511        1.31591
H          0.49566       -0.34613        1.30043
C          3.43852       -1.70467        0.17116
H          3.91982       -1.89387       -0.78879
H          4.09420       -1.12834        0.82369
H          3.11854       -2.63271        0.64272
N          0.52569        3.13539       -0.27188
C         -0.76699        3.12706       -0.93051
C          0.42416        3.13492        1.17578
H          1.09028        2.35266       -0.58225
H         -1.27936        4.07845       -0.74604
H         -0.63048        3.02622       -2.01059
H         -1.43955        2.32066       -0.58723
H         -0.00851        4.08369        1.51436
H         -0.20799        2.32199        1.57580
H          1.42196        3.04797        1.61488
