30
1sa1msa2ma_10.log	Energy: -976506.0181409
S          2.55699       -0.09895       -0.20440
O          2.35547       -1.33885       -0.98013
O          2.69727        1.11826       -0.99885
O          1.57691        0.02182        0.90866
O          3.95361       -0.30013        0.60953
H          4.67213       -0.32314       -0.03700
S         -2.56923        0.11612       -0.17255
O         -2.36688       -1.06340       -1.05599
O         -2.19938        1.40792       -0.81712
O         -1.89302       -0.04654        1.14096
C         -4.32398        0.20307        0.12846
H         -4.63565       -0.72723        0.60340
H         -4.51890        1.05397        0.78134
H         -4.82410        0.33170       -0.83155
N         -0.10321       -2.15212        0.03095
H          0.77775       -2.05865       -0.51067
H         -0.03838       -1.42725        0.75659
C         -0.28426       -3.49403        0.61507
H         -1.20535       -3.50314        1.19748
H         -0.34986       -4.22853       -0.18710
H          0.56509       -3.72642        1.25730
H         -0.92273       -1.86488       -0.55102
N         -0.04229        2.21378        0.65134
H         -0.50542        2.34951        1.54819
H          0.58196        1.37994        0.76000
C          0.72327        3.40077        0.21069
H          1.25228        3.13740       -0.70422
H          0.03705        4.22939        0.03561
H          1.45183        3.66679        0.97620
H         -0.80526        1.95277       -0.02124
