27
1sa1msa1a1ma_55.log	Energy: -951832.7482480
S          2.41840       -0.38327       -0.16610
O          3.44269       -0.09826       -1.15469
O          1.01258       -0.17017       -0.62081
O          2.43983       -1.99931        0.07303
O          2.62543        0.23330        1.15994
H          3.34329       -2.30424       -0.08369
H          1.16594        0.90437        1.77255
S         -2.10750       -0.80261       -0.00291
O         -2.35220        0.42306       -0.75504
O         -1.80154       -0.63743        1.42435
O         -1.00831       -1.67884       -0.69996
H         -0.11632       -1.17363       -0.70850
C         -3.49309       -1.89728       -0.15938
H         -4.34381       -1.39825        0.30528
H         -3.67409       -2.06734       -1.22022
H         -3.25732       -2.82716        0.35699
N          0.22444        1.34163        1.89436
H          0.18339        1.88208        2.75265
H         -0.49248        0.60006        1.89881
H          0.04902        1.95428        1.01857
N         -0.21123        2.62620       -0.49289
H          0.66500        2.91845       -0.91598
C         -1.24165        3.65941       -0.63262
H         -1.42685        3.94922       -1.67349
H         -2.17594        3.27730       -0.21527
H         -0.94913        4.55102       -0.07117
H         -0.49721        1.78149       -0.98506
