32
1sa1msa1a1eda_35.log	Energy: -1011241.5207490
S         -2.57383       -0.07541       -0.13251
O         -1.58721        0.66397        0.76733
O         -2.86294       -1.39390        0.44618
O         -3.67953        0.75495       -0.55389
O         -1.70770       -0.32183       -1.48031
H         -0.98280       -0.96328       -1.27651
S          1.69383       -1.38258       -0.25339
O          2.03769       -0.05711       -0.83819
O          0.35474       -1.87011       -0.67283
O          1.84975       -1.41198        1.22677
C          2.88531       -2.52849       -0.91380
H          2.78036       -2.53576       -1.99870
H          3.87946       -2.18970       -0.62207
H          2.67342       -3.51311       -0.49726
N         -0.70979       -1.45164        2.20817
H         -0.90058       -1.62124        3.19059
H         -1.31017       -2.03640        1.61156
H         -0.98705       -0.48518        1.91284
H          0.29891       -1.57910        1.96414
H          1.17537        3.72982       -1.17405
H         -0.32051        3.84540       -0.20227
H          1.52032        4.08932        1.30527
H          0.83062        2.49124        1.59428
H          3.35446        2.68413        1.35472
H          2.70801        1.57903        0.33020
H         -0.38439        1.98655       -1.77981
H          0.89250        1.23988       -1.00829
C          0.57589        3.25207       -0.39674
C          1.40672        3.09183        0.87028
N          0.11700        1.92763       -0.89431
N          2.72992        2.56914        0.56586
H         -0.55366        1.48601       -0.20723
