36
1sa1msa1ma1tma_115.log	Energy: -1025798.0380092
S          2.64804       -0.69637       -0.30496
O          1.40018       -1.42165       -0.59106
O          3.85376       -1.25850       -0.93620
O          2.52171        0.75407       -0.98047
O          2.85428       -0.45554        1.15345
H          1.64302        1.14285       -0.74277
H          4.47993       -0.30748        1.37380
S         -1.18766        0.85990       -0.22301
O         -1.94251        0.91148       -1.46197
O          0.09001        1.59037       -0.17588
O         -0.93444       -0.63711        0.21985
H         -0.02885       -0.96417       -0.08324
C         -2.20790        1.40293        1.11600
H         -2.43786        2.45196        0.92404
H         -3.12058        0.79003        1.09902
H         -1.64733        1.28928        2.04328
N          5.46415       -0.26822        0.97429
H          6.14774       -0.67646        1.60638
C          5.78970        1.12128        0.57006
H          6.75194        1.14118        0.05941
H          5.00192        1.45940       -0.10415
H          5.81574        1.75643        1.45484
H          5.32187       -0.86304        0.13502
N         -4.83199       -0.38397        0.36190
C         -4.26874       -1.55882       -0.28780
H         -3.50071       -1.25088       -1.00084
H         -3.80059       -2.20696        0.45833
H         -5.03793       -2.14305       -0.82775
C         -5.84231       -0.75267        1.33672
H         -5.41003       -1.42413        2.08475
H         -6.21037        0.14172        1.84926
H         -6.70826       -1.26447        0.87427
C         -5.35710        0.55284       -0.61912
H         -5.73041        1.44901       -0.11264
H         -4.55865        0.84852       -1.30500
H         -6.18772        0.12079       -1.20881
