38
1sa1msa1dma1eda_342.log	Energy: -1060536.9993114
S         -0.10236       -1.79066       -0.70533
O          0.10083       -0.99482       -1.90802
O         -0.16848       -0.91205        0.53471
O         -1.25126       -2.70908       -0.70682
O          1.16892       -2.72542       -0.48847
H          1.96878       -2.14931       -0.49024
S          2.99402        0.53284        0.28656
O          2.92723        1.61454       -0.67585
O          3.15182       -0.83831       -0.21295
O          1.76213        0.57980        1.27530
H          0.99858       -0.01253        0.94696
C          4.30699        0.85533        1.43885
H          5.23463        0.86340        0.86567
H          4.13016        1.82884        1.89565
H          4.31688        0.06264        2.18568
N         -2.85961       -1.14462        0.85729
C         -3.40996       -1.69109        2.11354
C         -3.71569       -0.14822        0.16948
H         -1.91571       -0.74462        1.02104
H         -4.36054       -2.18372        1.90522
H         -2.70049       -2.41174        2.52078
H         -3.56454       -0.87643        2.82201
H         -4.66096       -0.62294       -0.09840
H         -3.87562        0.70345        0.83289
H         -3.18798        0.21130       -0.71940
H         -2.60270       -1.91464        0.20698
H         -1.57197        4.23841       -0.82320
H         -1.21845        3.85736        0.86600
H          0.15423        2.48603       -0.62494
H         -0.94210        1.47979        0.31705
H         -1.42040        2.26137       -2.46392
H         -0.99142        0.78623       -1.93333
H         -3.59589        3.96029        0.47864
H         -3.48490        2.74604       -0.61311
C         -1.67503        3.46053       -0.04666
C         -0.90378        2.22391       -0.48452
N         -3.07337        3.12522        0.23572
N         -1.51286        1.62453       -1.67656
