23
1sa1msa1ma_02.log	Energy: -916343.0235666
S         -2.18024       -0.33017       -0.00571
O         -1.60417        1.00349       -0.22981
O         -3.60364       -0.45901        0.08506
O         -1.67307       -1.28393       -1.14658
O         -1.54136       -0.91761        1.31083
H         -0.67075       -1.29109       -1.19466
H         -0.54642       -0.77199        1.31848
S          1.78462       -0.67153       -0.06935
O          0.95288       -1.35183       -1.08903
O          1.02271       -0.41161        1.19517
O          2.42424        0.58044       -0.55279
H          1.42050        1.83069       -0.03616
C          3.10026       -1.79457        0.33714
H          2.65245       -2.71126        0.72074
H          3.66362       -1.99121       -0.57502
H          3.73070       -1.32295        1.09059
N          0.64072        2.40925        0.36776
H         -0.22519        1.84350        0.22305
C          0.52093        3.73920       -0.26841
H         -0.31924        4.27769        0.16877
H          1.44539        4.29745       -0.12339
H          0.34361        3.59123       -1.33278
H          0.80237        2.46323        1.37189
