38
1sa1msa1dma1eda_17.log	Energy: -1060565.7896842
S         -2.45696       -1.02854        0.09130
O         -1.89015       -2.21573        0.76578
O         -3.04100       -0.04127        1.00042
O         -1.54343       -0.46695       -0.92754
O         -3.67877       -1.58376       -0.83343
H         -4.35514       -1.94462       -0.24439
S          2.85863        0.57751       -0.04926
O          2.47157        1.66009       -0.99439
O          3.45939       -0.61033       -0.67528
O          1.69729        0.22079        0.83611
C          4.09038        1.28220        1.03272
H          4.94535        1.57304        0.42167
H          3.65972        2.15162        1.52946
H          4.37956        0.52470        1.76119
N          0.81325       -2.27493        0.13601
C          1.69011       -3.14018        0.94990
C          0.93697       -2.49882       -1.32350
H         -0.18282       -2.37919        0.41749
H          2.72622       -2.92410        0.68505
H          1.52273       -2.91657        2.00356
H          1.45608       -4.18741        0.75140
H          1.95324       -2.24178       -1.62448
H          0.71378       -3.54496       -1.54068
H          0.21371       -1.85349       -1.82141
H          1.07109       -1.28294        0.35534
H         -0.54530        3.96765       -0.71223
H         -1.21776        2.93170       -1.99402
H         -2.97792        3.87943       -0.38229
H         -2.98274        2.11874       -0.51988
H         -2.46656        3.60251        1.82248
H         -2.56356        1.96142        1.62033
H          0.76125        1.93791       -0.77756
H         -0.20770        1.96087        0.58593
C         -1.07581        3.03422       -0.91634
C         -2.40509        2.97411       -0.15598
N         -0.22582        1.92297       -0.44065
N         -2.14431        2.81862        1.27221
H         -0.65028        1.00333       -0.67686
