38
1sa1msa1dma1eda_71.log	Energy: -1060561.9896689
S          2.58822       -0.88651       -0.16447
O          3.52456       -1.73528       -0.88038
O          3.08854        0.41898        0.27402
O          1.23456       -0.77852       -0.79419
O          2.17955       -1.71858        1.20614
H          3.00056       -2.00796        1.62577
S         -2.83407        0.48558       -0.09320
O         -3.04006       -0.85579       -0.71371
O         -2.44234        1.53170       -1.07501
O         -1.89783        0.42031        1.05526
C         -4.42796        0.97704        0.53778
H         -4.75130        0.23434        1.26725
H         -4.31925        1.95553        1.00576
H         -5.12556        1.02463       -0.29851
N         -0.86963       -2.35647       -0.00415
C         -0.64127       -3.56022       -0.82738
C         -0.98068       -2.61445        1.44786
H         -0.07759       -1.70482       -0.18038
H         -1.47134       -4.25554       -0.69326
H         -0.57237       -3.26042       -1.87282
H          0.29580       -4.02822       -0.52221
H         -1.80574       -3.30756        1.62209
H         -0.04144       -3.03648        1.80588
H         -1.18048       -1.66051        1.93566
H         -1.73130       -1.84804       -0.32399
H          2.09506        2.10198       -1.30440
H          0.80428        3.16468       -1.91002
H          2.53733        4.27484       -0.38383
H          0.85984        4.50060        0.13534
H          2.60628        2.40632        1.24792
H          2.04657        3.75235        2.03758
H          0.50000        0.79834       -0.58927
H          0.26879        1.90386        0.61199
C          1.23197        2.70526       -1.01796
C          1.65364        3.75519        0.01172
N          0.23486        1.78606       -0.41130
N          1.85665        3.09348        1.29374
H         -0.74770        1.90600       -0.73086
