40
1sa1msa2eda_12.log	Energy: -1095298.2085915
S         -2.65130        1.15087       -0.16388
O         -1.53431        0.58828       -0.95523
O         -3.81872        0.27989       -0.02332
O         -2.17106        1.73866        1.10575
O         -3.12283        2.40069       -1.09634
H         -3.98111        2.70374       -0.77072
S          2.59193       -1.20580       -0.24192
O          3.24048       -0.08551       -0.94165
O          1.92723       -2.19112       -1.13633
O          1.65995       -0.74763        0.84177
C          3.88604       -2.10796        0.59347
H          3.43612       -2.94330        1.13006
H          4.58500       -2.46746       -0.16206
H          4.38494       -1.42811        1.28448
H         -0.72826       -3.72349        0.50857
H         -0.21190       -2.19522        1.26256
H         -2.56108       -3.04397        1.96093
H         -2.50583       -1.38449        1.38230
H         -3.94409       -3.49476        0.21450
H         -3.87961       -1.90584       -0.22323
H          0.21169       -2.17737       -1.06727
H         -1.45577       -2.50052       -1.37019
C         -0.94935       -2.65714        0.60394
C         -2.38635       -2.42736        1.07289
N         -0.77509       -2.06212       -0.74449
N         -3.32298       -2.72901       -0.00943
H         -1.00052       -1.04491       -0.74918
H          1.00494        3.74846        1.19060
H          1.60523        2.51129        2.32127
H          3.43433        3.59290        0.87587
H          3.35597        1.83033        0.75846
H          2.96139        3.64595       -1.35447
H          2.93466        1.98696       -1.37740
H         -0.39327        1.82738        0.94676
H          0.60683        1.97266       -0.38448
C          1.48775        2.77108        1.26717
C          2.82474        2.75661        0.51819
N          0.59377        1.78323        0.62640
N          2.57737        2.81968       -0.91805
H          0.95605        0.80879        0.74316
