41
1sa1msa1tma1eda_07.log	Energy: -1085222.9818183
S         -0.05900       -1.90397       -0.58165
O         -0.92055       -3.07628       -0.59189
O         -0.69110       -0.91881       -1.67764
O         -0.07875       -1.12779        0.69575
O          1.35096       -2.15200       -0.98137
H         -1.45971       -0.26407        0.97052
H          2.30947       -1.20526       -0.08106
S         -0.03338        2.57346       -0.11480
O          1.40658        2.32031        0.08433
O         -0.81193        2.62595        1.15419
O         -0.66342        1.65614       -1.10974
H         -0.51257        0.03574       -1.45692
C         -0.17152        4.20346       -0.83068
H          0.37807        4.20957       -1.77220
H         -1.22747        4.41416       -1.00014
H          0.25644        4.91810       -0.12722
H         -4.21552        0.83074        0.63925
H         -2.97245        0.88381       -0.63850
H         -4.64195       -1.12908       -0.69702
H         -2.92836       -1.48354       -0.88228
H         -4.60046       -2.43067        1.15264
H         -3.00219       -2.71985        0.91985
H         -1.89600        1.27468        1.40548
H         -2.65352       -0.10961        2.09953
C         -3.34920        0.31632        0.21423
C         -3.68027       -1.12869       -0.17361
N         -2.28725        0.32191        1.25085
N         -3.70152       -1.98910        1.01264
N          3.14459       -0.76687        0.39920
C          4.07642       -1.89358        0.63181
H          3.59761       -2.61243        1.29709
H          4.28902       -2.37567       -0.32265
H          4.99694       -1.51570        1.08256
C          3.69977        0.22988       -0.55149
H          3.91503       -0.27494       -1.49400
H          2.95473        1.01423       -0.69562
H          4.61455        0.65306       -0.12923
C          2.70185       -0.13505        1.66931
H          2.04015        0.69711        1.42643
H          2.16408       -0.87968        2.25529
H          3.58495        0.22169        2.20600
