36
1sa1msa1ma1tma_110.log	Energy: -1025806.1709147
S          0.80735       -0.61445        0.60631
O         -0.35767       -0.31052        1.46357
O          1.80595       -1.52004        1.16802
O          0.25459       -1.38191       -0.68260
O          1.43292        0.65158        0.10236
H         -0.60237       -0.97973       -0.97819
H          2.91252        0.35975       -0.18886
S         -3.31689       -0.52277       -0.40006
O         -4.30212       -1.46016       -0.89202
O         -2.11699       -0.26209       -1.21598
O         -2.84769       -1.01920        1.02926
H         -1.90275       -0.75032        1.22402
C         -4.08335        1.03894       -0.06271
H         -4.44046        1.43013       -1.01659
H         -4.91926        0.85317        0.61231
H         -3.32951        1.69896        0.38926
N         -1.40166        2.57515        0.92698
H         -1.23136        3.30626        1.60869
C         -0.93674        2.98122       -0.39821
H          0.14039        3.19103       -0.45581
H         -1.15593        2.17915       -1.10869
H         -1.48453        3.87316       -0.71975
H         -0.89195        1.75062        1.23685
N          3.94582        0.12894       -0.38723
C          3.95627       -1.13100       -1.17322
H          3.47118       -1.90556       -0.57903
H          3.38957       -0.97493       -2.09160
H          4.98908       -1.40166       -1.40598
C          4.50662        1.26536       -1.14986
H          3.95330        1.37248       -2.08330
H          4.39790        2.17624       -0.56034
H          5.56272        1.08065       -1.36065
C          4.60393       -0.04349        0.93125
H          4.52300        0.89226        1.48535
H          4.07500       -0.83025        1.46951
H          5.65487       -0.30205        0.78017
