32
1sa1msa1a1eda_239.log	Energy: -1011227.8317868
S         -0.52544       -1.17172       -0.49716
O          0.03837       -0.17144       -1.45026
O         -0.51978       -0.61049        0.88714
O         -1.83654       -1.68293       -0.88937
O          0.45325       -2.42145       -0.50462
H          1.37711       -2.09423       -0.37842
S          3.08709        0.20812        0.22939
O          4.43038        0.73487        0.15923
O          2.85505       -1.19793       -0.12396
O          2.15777        1.11862       -0.67541
H          1.35292        0.60426       -1.00359
C          2.43156        0.46685        1.86262
H          3.03139       -0.13783        2.54404
H          2.53042        1.52605        2.10051
H          1.38856        0.14245        1.86039
N         -4.26665       -1.72309        1.10027
H         -5.15784       -2.02621        0.72063
H         -4.14293       -2.20121        1.98738
H         -3.53522       -2.06232        0.47090
H         -3.81050        2.58708        0.56527
H         -2.60834        2.34024        1.85774
H         -1.73007        3.74668       -0.10766
H         -0.77458        2.30106        0.22411
H         -2.20143        2.85414       -2.15883
H         -1.24238        1.54536       -1.81629
H         -3.71216        0.13711        1.01586
H         -2.98149        0.54195       -0.42511
C         -2.84271        2.14304        0.80974
C         -1.74631        2.65313       -0.14010
N         -2.93437        0.68438        0.59605
N         -1.99934        2.13448       -1.47937
H         -2.05059        0.21033        0.89339
