24
1sa1msa2a_84.log	Energy: -927160.8308261
S          2.02743       -0.28489       -0.47808
O          1.14420       -1.44202       -0.58030
O          3.24433       -0.25002       -1.25400
O          1.21286        1.01217       -0.86601
O          2.34722       -0.10001        1.04160
H          0.28945        0.96203       -0.49298
H          3.21993        0.46273        1.14993
S         -2.06975       -0.44016        0.15074
O         -2.76446       -0.68246       -1.09848
O         -1.19249        0.74445        0.21427
O         -1.22406       -1.70994        0.58959
H         -0.32303       -1.68783        0.16387
C         -3.21951       -0.35900        1.49110
H         -2.66267       -0.21324        2.41584
H         -3.86451        0.49495        1.25903
H         -3.78065       -1.29345        1.50534
N         -4.19560        2.11259       -0.41357
H         -3.29899        2.58821       -0.43735
H         -4.92089        2.80591       -0.55863
H         -4.21115        1.46819       -1.19890
N          4.58247        1.23236        1.11727
H          4.49918        2.23947        1.21351
H          4.93041        1.03115        0.18197
H          5.26812        0.90451        1.79006
