40
1sa1msa2eda_144.log	Energy: -1095290.1395100
S         -1.84338        1.10735        1.32710
O         -0.53784        1.82603        0.71969
O         -1.95567        1.41325        2.73933
O         -2.90076        1.64869        0.44293
O         -1.64546       -0.35830        1.05269
H         -2.39782        1.54009       -1.10225
H         -0.38576       -1.23319        1.46694
S          2.66725        0.51776       -0.08989
O          2.19942        1.44897       -1.12360
O          2.85217       -0.88200       -0.52035
O          1.78565        0.55786        1.14919
H          0.31835        1.39703        0.98963
C          4.25095        1.11406        0.47852
H          4.93367        1.11125       -0.37170
H          4.11622        2.12578        0.86128
H          4.61111        0.44794        1.26260
H         -0.51135        1.54460       -3.43934
H         -0.12470        1.97054       -1.74409
H          0.69244       -0.33778       -2.39777
H         -0.40735       -0.31262       -1.01901
H         -1.02462       -1.33687       -3.65681
H         -1.47782       -1.86477       -2.15714
H         -2.55961        2.25018       -2.61628
H         -2.56658        0.56763       -2.48479
C         -0.68995        1.29956       -2.38882
C         -0.34386       -0.15973       -2.09945
N         -2.15436        1.45237       -2.13400
N         -1.32940       -1.03661       -2.73764
H         -0.91574       -4.03243        1.37695
H         -0.35210       -4.55842       -0.20809
H          1.50457       -3.44323        0.75327
H          0.87004       -2.30547       -0.42763
H          0.55634       -2.18132        2.49630
H          1.24163       -1.03233        1.46288
H         -2.49345       -3.57944       -0.43441
H         -2.00339       -2.14398        0.18100
C         -0.61928       -3.67251        0.37646
C          0.63985       -2.82573        0.50300
N         -1.68947       -2.96985       -0.32945
N          0.51433       -1.78373        1.56048
