30
1sa1msa2ma_148.log	Energy: -976474.5082801
S          1.55534        0.56644       -0.01530
O          0.24112        1.13466       -0.36329
O          2.55521        1.55263        0.42565
O          1.34575       -0.35451        1.27944
O          2.09374       -0.32675       -1.08162
H          0.56152       -0.93820        1.13705
H          3.73895       -0.21657       -1.02028
S         -2.10501       -1.28409        0.09631
O         -3.03993       -0.69691        1.03860
O         -0.84618       -1.82289        0.63050
O         -1.78299       -0.28793       -1.08309
H         -0.98540        0.29437       -0.85436
C         -2.92019       -2.56836       -0.81611
H         -3.22041       -3.32606       -0.09205
H         -3.79355       -2.13357       -1.30194
H         -2.21997       -2.97475       -1.54478
N         -3.89221        2.40122        0.51450
H         -3.77710        2.88074        1.40074
C         -2.92515        2.89910       -0.46098
H         -1.87001        2.76863       -0.17904
H         -3.08123        2.38526       -1.41411
H         -3.10220        3.96513       -0.63557
H         -3.73458        1.41437        0.69743
N          4.62265        0.16022       -0.56839
H          5.33578        0.37608       -1.26027
C          5.09231       -0.76413        0.49138
H          5.93874       -0.32255        1.01626
H          4.26489       -0.91936        1.18416
H          5.37855       -1.71329        0.04004
H          4.23200        1.02599       -0.14750
