32
1sa1msa1a1eda_93.log	Energy: -1011236.8960670
S         -2.46070       -0.64606       -0.15983
O         -2.18409        0.38968       -1.17794
O         -2.22684       -2.01836       -0.61987
O         -1.84537       -0.34713        1.15151
O         -4.04974       -0.51747        0.16259
H         -4.53633       -0.73682       -0.64352
S          2.40986       -0.65172       -0.13961
O          2.42193        0.84115       -0.11181
O          1.33881       -1.17846       -1.01240
O          2.37785       -1.25171        1.22455
C          3.97808       -1.12814       -0.84103
H          4.05645       -0.68806       -1.83523
H          4.76749       -0.75248       -0.18986
H          4.00988       -2.21633       -0.89781
N         -0.06594       -2.41880        1.26756
H         -0.26347       -3.24302        1.82622
H         -0.21301       -2.61548        0.27178
H         -0.74081       -1.65021        1.47981
H          0.91602       -2.06508        1.39059
H          0.26290        3.86332       -0.88290
H         -1.39240        3.18876       -1.00835
H         -1.03962        3.64482        1.29249
H         -0.90655        1.89267        1.13005
H          0.87857        3.08270        2.46403
H          1.51865        2.18918        1.25230
H          0.30987        1.95865       -2.28477
H          1.02663        1.44965       -0.86668
C         -0.38546        3.02494       -0.61945
C         -0.40876        2.84491        0.89261
N          0.13514        1.79823       -1.29489
N          0.92948        2.99438        1.45603
H         -0.59530        1.05358       -1.23398
