26
1sa1msa1dma_36.log	Energy: -940995.2569576
S         -1.35221       -1.43038       -0.05062
O         -2.63889       -2.08017        0.00971
O         -0.15967       -2.31945       -0.05665
O         -1.20595       -0.39513       -1.11979
O         -1.24459       -0.57693        1.33370
H         -1.41432        1.05590       -0.75891
H         -0.30029       -0.33168        1.45265
S          2.14812        0.20190       -0.03975
O          1.36488        0.26382        1.20709
O          1.92256        1.27814       -0.99527
O          1.99031       -1.20165       -0.69847
H          1.08580       -1.67290       -0.46371
C          3.87122        0.17144        0.38633
H          4.10913        1.13465        0.83813
H          4.03737       -0.64332        1.09016
H          4.44142        0.02320       -0.53058
N         -1.73228        2.05816       -0.51561
C         -0.71469        2.74168        0.31802
C         -3.06311        1.93052        0.12716
H         -1.82247        2.54191       -1.40827
H         -0.60202        2.18026        1.24496
H          0.23622        2.73096       -0.21491
H         -1.04204        3.76154        0.52929
H         -2.93381        1.36172        1.04837
H         -3.47222        2.92007        0.33757
H         -3.72125        1.37534       -0.54128
