28
1sa1msa1eda_14.log	Energy: -975733.6970254
S         -0.44499        1.91900       -0.02949
O          0.85373        1.98407       -0.74182
O         -1.53804        1.43810       -0.90892
O         -0.39131        1.24997        1.26740
O         -0.80242        3.45623        0.32586
H         -0.71687        3.98244       -0.48110
S          2.45893       -1.07942       -0.04773
O          3.58808       -1.95770       -0.25121
O          1.11214       -1.66837       -0.11150
O          2.57307        0.08289       -1.10759
H          1.86302        0.78913       -0.98890
C          2.59440       -0.24561        1.51672
H          2.56527       -1.01664        2.28746
H          3.54877        0.28045        1.53374
H          1.74868        0.43882        1.62139
H         -1.91003       -2.43183        1.06656
H         -1.70673       -0.68557        1.36886
H         -4.13029       -1.36738        1.54732
H         -3.85169       -0.21000        0.24271
H         -4.33544       -3.07801       -0.08912
H         -5.02737       -1.82030       -0.87191
H         -0.53421       -1.51306       -0.61164
H         -2.06772       -1.83568       -1.30022
C         -2.15547       -1.42884        0.70747
C         -3.65974       -1.23823        0.56466
N         -1.53954       -1.26479       -0.63416
N         -4.16162       -2.15168       -0.46433
H         -1.59767       -0.25574       -0.91120
