36
1sa1msa1ma1tma_24.log	Energy: -1025822.8762207
S          1.53844        1.38246       -0.47130
O          0.49085        0.83893       -1.56604
O          2.87401        0.98761       -0.91115
O          1.28319        2.83519       -0.41598
O          1.12626        0.70184        0.80011
H         -0.38222        2.92640       -0.05250
H          1.42952       -0.89624        0.58816
S         -2.39708       -0.82183       -0.35379
O         -3.19989       -0.96573       -1.56400
O         -2.55747        0.48808        0.34663
O         -0.94198       -1.14631       -0.54598
H         -0.05652        0.08981       -1.19556
C         -2.97686       -2.03693        0.82357
H         -4.03442       -1.84565        1.00679
H         -2.84460       -3.02610        0.38321
H         -2.40590       -1.93553        1.74732
N         -1.31013        2.83080        0.42709
H         -1.95225        3.53257        0.06661
C         -1.10190        2.95723        1.88843
H         -2.04943        2.79700        2.40207
H         -0.38159        2.19068        2.17347
H         -0.70003        3.94447        2.11596
H         -1.72084        1.87873        0.22694
N          1.88562       -1.84826        0.48610
C          3.24816       -1.68035        1.05046
H          3.74309       -0.87890        0.49993
H          3.15979       -1.39931        2.10021
H          3.79476       -2.62121        0.95398
C          1.06682       -2.82062        1.24471
H          1.01240       -2.49937        2.28574
H          0.06978       -2.82652        0.80441
H          1.53003       -3.80814        1.18138
C          1.93863       -2.18673       -0.96280
H          0.91719       -2.24785       -1.33756
H          2.47877       -1.39139       -1.47794
H          2.45329       -3.14372       -1.07843
