28
1sa1msa1eda_53.log	Energy: -975731.6303857
S          1.86815        1.42675        0.09612
O          2.77303        0.39632        0.59783
O          1.04976        0.91230       -1.07129
O          1.01680        2.13299        1.04268
O          2.79879        2.58985       -0.54522
H          3.54776        2.16605       -0.98562
S          0.03799       -2.27818        0.03863
O         -0.62614       -3.51370       -0.31384
O         -0.70248       -1.30521        0.85954
O          0.46958       -1.58085       -1.31318
H          0.78228       -0.62225       -1.18959
C          1.57594       -2.61114        0.85837
H          1.33378       -3.08525        1.81010
H          2.15034       -3.28559        0.22338
H          2.09681       -1.66150        1.00590
H         -2.75538        1.50477       -1.68357
H         -2.35272       -0.20102       -1.38687
H         -4.70560        0.30076       -0.67041
H         -3.69408       -0.18692        0.69146
H         -4.58850        2.53884        0.12034
H         -4.58840        1.72657        1.54114
H         -0.62188        1.37787       -0.58696
H         -1.76333        1.96019        0.52622
C         -2.61829        0.74432       -0.91021
C         -3.86262        0.61010       -0.03960
N         -1.48648        1.16384       -0.05463
N         -4.07641        1.86493        0.67882
H         -1.20385        0.37566        0.55560
