42
1sa1msa2tma_42.log	Energy: -1075127.4875810
S         -0.05809       -1.72845       -0.42363
O         -1.33681       -2.32819        0.01499
O          0.95322       -2.66670       -0.89642
O         -0.39696       -0.82391       -1.70569
O          0.47460       -0.78688        0.61107
H         -1.16359       -0.24594       -1.47761
H          2.05726       -0.78143        0.61197
S         -3.53034        0.37097        0.14005
O         -4.81085        0.17895       -0.50838
O         -2.37458        0.72189       -0.69983
O         -3.16052       -0.86344        1.04355
H         -2.43159       -1.45122        0.63619
C         -3.69442        1.62786        1.38543
H         -3.99545        2.54421        0.87694
H         -4.46259        1.30919        2.08980
H         -2.73178        1.75136        1.88043
N          3.11737       -0.88599        0.61645
C          3.66350        0.15229        1.52072
H          3.38506        1.12443        1.10689
H          3.22343        0.02072        2.51017
H          4.74971        0.04613        1.57803
C          3.39462       -2.26218        1.09561
H          2.97788       -2.37326        2.09737
H          2.90149       -2.96163        0.42012
H          4.47483       -2.42501        1.11624
C          3.56502       -0.68909       -0.78534
H          3.02321       -1.39603       -1.41484
H          3.32274        0.33496       -1.07020
H          4.64280       -0.85948       -0.84559
N          1.98848        2.44174       -0.26711
C          0.93572        2.46981        0.74154
H          0.39957        1.51778        0.73746
H          1.37875        2.62009        1.73263
H          0.21271        3.28702        0.56239
C          2.74892        3.68090       -0.26268
H          3.20118        3.83871        0.72227
H          3.55168        3.62874       -1.00479
H          2.12265        4.56213       -0.49625
C          1.42289        2.18026       -1.58545
H          2.22241        2.14692       -2.33332
H          0.90621        1.21766       -1.58580
H          0.70301        2.96045       -1.89212
