33
1sa1msa1ma1dma_101.log	Energy: -1001154.5013534
S         -1.42249        0.12660       -0.33575
O         -1.18873       -0.89603        0.69138
O         -2.00594        1.37779        0.17020
O         -0.15848        0.41881       -1.11899
O         -2.38827       -0.46904       -1.43602
H         -3.32952       -0.50952       -1.02472
S          2.69197       -1.20638        0.02617
O          2.68520        0.11569        0.67816
O          3.97151       -1.80950       -0.27360
O          1.88036       -1.12167       -1.32297
H          1.02577       -0.57785       -1.23684
C          1.71680       -2.29634        1.03344
H          2.21509       -2.37250        2.00061
H          0.71277       -1.87291        1.12750
H          1.68868       -3.26584        0.53605
N         -4.67337       -0.43355       -0.11520
H         -4.55530        0.48127        0.31410
C         -4.64512       -1.49120        0.90566
H         -5.42638       -1.38032        1.66668
H         -4.76530       -2.46012        0.41613
H         -3.66607       -1.48044        1.38945
H         -5.55667       -0.42560       -0.61457
N          1.19494        2.34260        0.18624
C          0.59043        2.52892        1.52641
C          1.47040        3.59320       -0.54568
H          2.03704        1.75265        0.29036
H         -0.38937        2.99030        1.40930
H          0.46763        1.54621        1.98105
H          1.25263        3.14687        2.13515
H          0.52899        4.12076       -0.70310
H          2.15325        4.21469        0.03568
H          1.91885        3.34907       -1.50861
H          0.56479        1.72033       -0.38238
