39
1sa1msa1dma1tma_136.log	Energy: -1050461.9255751
S          1.02766        0.68534       -0.57065
O          2.01388        1.76061       -0.65517
O         -0.12354        0.79371       -1.48281
O          1.66962       -0.66853       -0.64976
O          0.45770        0.80627        0.92651
H          3.10273       -0.53484       -0.15488
H         -0.31054        0.19026        1.02954
S         -2.54949       -1.35139        0.09581
O         -3.88521       -0.93678        0.47578
O         -1.43710       -1.11497        1.02638
O         -2.17382       -0.81890       -1.34077
H         -1.42493       -0.14425       -1.32809
C         -2.58958       -3.09861       -0.23775
H         -2.86904       -3.59554        0.69174
H         -3.33721       -3.28043       -1.00968
H         -1.59885       -3.41011       -0.56707
N         -2.42207        1.84659        0.27767
C         -2.89733        2.05344        1.63323
C         -3.40598        2.19690       -0.73124
H         -1.56271        2.36080        0.12054
H         -3.71898        1.35737        1.83085
H         -2.09359        1.83290        2.34176
H         -3.25930        3.08021        1.82289
H         -4.25018        1.50317       -0.65968
H         -3.79437        3.22633       -0.62973
H         -2.96230        2.08774       -1.72462
N          4.09624       -0.41190        0.25335
C          3.92327        0.30911        1.53962
H          3.45351        1.27043        1.33118
H          3.26525       -0.27704        2.18163
H          4.89884        0.44361        2.01352
C          4.65777       -1.76581        0.44798
H          4.00021       -2.32889        1.11103
H          4.71206       -2.26891       -0.51787
H          5.65585       -1.69019        0.88664
C          4.87679        0.38756       -0.72152
H          4.93092       -0.16202       -1.66190
H          4.34914        1.32751       -0.88385
H          5.88156        0.55888       -0.32684
