38
1sa1msa1dma1eda_300.log	Energy: -1060545.1527741
S          1.06587       -2.26840       -0.18069
O          2.22657       -3.13537       -0.08619
O         -0.25029       -2.91794       -0.16581
O          1.07627       -1.08131        0.72309
O          1.18236       -1.53884       -1.66334
H          1.68565       -2.13976       -2.22859
S          1.64078        2.09890        0.11406
O          2.20882        3.39464        0.41551
O          0.26451        1.80882        0.52242
O          2.60150        1.00192        0.73090
H          2.12655        0.11511        0.74795
C          1.75745        1.78902       -1.63476
H          1.08843        2.49128       -2.13388
H          2.79045        1.95978       -1.93795
H          1.45898        0.75475       -1.81959
N         -1.50478       -0.20838        1.63929
C         -1.97856        1.03350        2.28714
C         -1.46580       -1.39214        2.52661
H         -2.09333       -0.44346        0.79510
H         -1.26592        1.32695        3.05842
H         -2.05377        1.80550        1.52367
H         -2.95802        0.84519        2.73145
H         -0.75081       -1.21363        3.33049
H         -2.46197       -1.55597        2.94136
H         -1.15093       -2.25279        1.93607
H         -0.55772       -0.05985        1.25458
H         -3.74434        0.74703       -2.56793
H         -2.47983        1.96576       -2.39345
H         -1.55269       -0.31319       -2.65415
H         -1.06095        0.46184       -1.14124
H         -3.30182       -1.43796       -1.28137
H         -1.78192       -1.82598       -0.80763
H         -4.01713        2.45808       -0.73997
H         -4.13242        0.91678       -0.21731
C         -2.96041        1.12272       -1.88773
C         -1.91538        0.03499       -1.67768
N         -3.49362        1.59943       -0.61163
N         -2.45795       -1.05925       -0.85968
