24
1sa1msa2a_28.log	Energy: -927174.5269482
S         -2.14672       -0.47373       -0.03503
O         -1.07684       -1.17055       -0.81190
O         -1.68686       -0.14724        1.33257
O         -2.78963        0.62241       -0.74590
O         -3.30664       -1.58249        0.12665
H         -2.92287       -2.36565        0.54542
S          2.24788       -0.42391        0.09493
O          2.01198       -1.72072        0.69758
O          2.40287        0.73814        0.98347
O          1.13925       -0.07798       -0.96681
H          0.23536       -0.60422       -0.85705
C          3.69480       -0.48582       -0.93471
H          4.54366       -0.67747       -0.27753
H          3.56914       -1.29625       -1.65218
H          3.80615        0.47408       -1.43800
N         -0.03958        2.03284        1.47986
H          0.92049        1.64709        1.48849
H         -0.16750        2.72461        2.21164
H         -0.22307        2.43896        0.50712
H         -0.70861        1.23814        1.59174
N         -0.58452        2.63175       -1.16948
H         -0.66004        3.53270       -1.62935
H         -1.47591        2.14032       -1.27238
H          0.11156        2.08015       -1.66595
