41
1sa1msa1tma1eda_197.log	Energy: -1085202.7630616
S         -0.09906       -2.48968       -0.39516
O         -0.21448       -3.16679        0.89829
O         -1.27466       -2.56786       -1.25736
O          0.41741       -1.09061       -0.26992
O          1.14218       -3.19262       -1.18514
H          1.01821       -4.15059       -1.14525
S          2.44556        1.34699       -0.12823
O          3.62708        2.13250        0.15043
O          1.18321        1.69768        0.52732
O          2.78782       -0.16346        0.21637
H          1.95138       -0.70210        0.08872
C          2.14406        1.29358       -1.88191
H          1.85340        2.29794       -2.19221
H          3.06604        0.98623       -2.37497
H          1.34028        0.57802       -2.06311
H         -3.00767        2.76455       -2.37798
H         -1.55514        3.31144       -1.52714
H         -1.19531        1.15362       -2.66701
H         -0.96144        1.02512       -0.92575
H         -3.35528        0.13071       -2.36020
H         -2.29454       -0.78888       -1.52548
H         -3.53471        3.51154       -0.14028
H         -3.75189        1.88671       -0.21986
C         -2.34758        2.55561       -1.51857
C         -1.72098        1.17751       -1.69874
N         -3.05249        2.62453       -0.23806
N         -2.73181        0.13188       -1.55814
N         -0.87814        0.21942        1.94776
C          0.01135       -0.46660        2.92166
H          0.18671       -1.48506        2.57134
H          0.95072        0.08435        2.97316
H         -0.48032       -0.47477        3.89650
C         -1.12694        1.63967        2.31683
H         -0.16803        2.14744        2.39799
H         -1.73509        2.09968        1.53040
H         -1.65609        1.65134        3.27270
C         -2.15823       -0.51626        1.74616
H         -2.67093       -0.09205        0.87994
H         -1.93762       -1.56891        1.56928
H         -2.76074       -0.40663        2.65014
H         -0.36715        0.20068        1.04992
