33
1sa1msa1ma1dma_153.log	Energy: -1001151.1565773
S         -0.29705       -1.12989       -0.61296
O         -0.00498        0.23190       -1.15823
O         -1.57211       -1.67121       -1.08626
O          0.81988       -2.10077       -1.18704
O         -0.17751       -1.12772        0.86986
H          1.70525       -1.69618       -1.01486
H         -1.93261       -0.93727        1.46900
S          3.19840        0.49325        0.22298
O          4.45122        1.21276        0.22932
O          3.08812       -0.73169       -0.57936
O          2.06345        1.50108       -0.22626
H          1.26818        1.01014       -0.60841
C          2.73916        0.08476        1.89234
H          3.49378       -0.60713        2.26871
H          2.73521        1.00588        2.47521
H          1.75343       -0.38522        1.86469
N         -2.91530       -0.78123        1.17914
H         -2.88715        0.15656        0.59850
C         -3.88511       -0.77494        2.28621
H         -4.88593       -0.60137        1.88942
H         -3.86389       -1.72866        2.81451
H         -3.62901        0.02713        2.97884
H         -3.07584       -1.51596        0.48512
N         -2.69181        1.39437       -0.42192
C         -2.88873        2.73150        0.13495
C         -3.53163        1.12409       -1.59183
H         -1.71552        1.28062       -0.70689
H         -3.90519        2.82077        0.53248
H         -2.18073        2.89535        0.95110
H         -2.74485        3.52157       -0.61465
H         -4.58595        1.11027       -1.29375
H         -3.40719        1.88272       -2.37585
H         -3.26036        0.14788       -2.00028
