28
1sa1msa1eda_86.log	Energy: -975728.9533676
S          2.17733       -0.94551       -0.09027
O          0.95919       -1.23458       -0.89801
O          3.25847       -1.90564       -0.17626
O          2.55635        0.47446       -0.28369
O          1.59210       -1.03676        1.43451
H          1.20498        1.21407       -0.90722
H          2.28539       -1.40437        1.99840
S         -2.14444       -0.63871        0.01711
O         -1.98717        0.26582       -1.13681
O         -1.82933       -0.06591        1.31619
O         -1.35888       -1.97043       -0.23924
H         -0.37610       -1.76959       -0.45533
C         -3.79992       -1.27150        0.01709
H         -4.46310       -0.42609        0.20142
H         -3.99755       -1.72166       -0.95493
H         -3.87886       -2.00677        0.81751
H         -1.34876        2.56874        0.64736
H         -0.37946        3.97375        1.07248
H         -0.45664        3.65070       -1.36802
H          1.20450        3.55119       -0.74575
H         -0.45299        1.14563       -1.28172
H          0.63545        1.79361       -2.35502
H          0.10728        1.14480        1.59766
H          1.43039        2.13175        1.45547
C         -0.32270        2.94772        0.68525
C          0.22427        3.06647       -0.74332
N          0.42701        2.10637        1.58838
N          0.40493        1.72648       -1.36545
