36
1sa1msa2dma_73.log	Energy: -1025814.8964903
S         -0.49044        1.80854        0.21826
O         -0.06466        1.18254        1.47890
O         -0.13981        0.97724       -0.96304
O         -1.87147        2.29426        0.20959
O          0.46470        3.11244       -0.00100
H          0.17772        3.80093        0.61401
S          2.85550       -0.63016       -0.27663
O          4.08969       -1.23466       -0.72641
O          1.76943       -1.50628        0.18241
O          2.31629        0.27643       -1.45297
H          1.36864        0.57517       -1.28305
C          3.19331        0.53343        1.02498
H          3.89689        1.27228        0.64170
H          2.24997        0.99029        1.33226
H          3.63623       -0.02983        1.84751
N         -0.96047       -1.63968        0.53807
C         -1.07275       -1.80576        2.00064
C         -0.94441       -2.90733       -0.21674
H         -1.79148       -1.04942        0.18700
H         -0.23358       -2.40350        2.36017
H         -1.04060       -0.81432        2.45254
H         -2.01573       -2.30556        2.23189
H         -0.10437       -3.51888        0.11399
H         -1.88773       -3.43246       -0.05269
H         -0.82523       -2.67919       -1.27601
H         -0.08165       -1.14062        0.33755
N         -3.17372       -0.29336       -0.40096
C         -4.42900       -0.79339        0.14983
C         -3.11255       -0.37316       -1.86077
H         -3.03419        0.68090       -0.12726
H         -4.51836       -1.86776       -0.04695
H         -4.44275       -0.63860        1.23191
H         -5.30982       -0.29778       -0.28360
H         -3.14485       -1.42366       -2.17205
H         -3.94886        0.15067       -2.34493
H         -2.17268        0.07007       -2.19729
