38
1sa1msa1dma1eda_55.log	Energy: -1060562.1538505
S         -2.83696        0.25530       -0.36194
O         -2.29589        1.22565       -1.33778
O         -3.29141       -1.00615       -0.94038
O         -1.94646        0.10331        0.81382
O         -4.14281        0.97236        0.30088
H         -4.83341        1.00800       -0.37457
S          2.53225       -0.85919       -0.42866
O          2.02573       -1.91207       -1.32098
O          1.87148       -0.89776        0.91721
O          2.49198        0.51185       -1.01184
C          4.26096       -1.18859       -0.13195
H          4.34826       -2.18321        0.30563
H          4.78041       -1.14279       -1.08927
H          4.64503       -0.43226        0.55274
N         -0.52703       -2.22822        0.79152
C         -0.83485       -2.93473        2.04939
C         -0.77425       -3.02414       -0.43358
H         -1.10484       -1.35732        0.75953
H         -0.21308       -3.82819        2.12461
H         -0.62632       -2.26713        2.88557
H         -1.89000       -3.21214        2.05527
H         -0.23515       -3.96931       -0.35647
H         -1.84742       -3.18392       -0.53912
H         -0.38949       -2.46841       -1.28690
H          0.45866       -1.87775        0.81190
H         -0.54717        2.58516        1.18105
H          0.51424        1.16134        1.21463
H          1.68085        3.15492        2.19814
H          2.48577        2.54771        0.74221
H          0.82598        4.95899        0.89201
H          2.32885        4.78442        0.26680
H         -0.66993        1.69660       -0.96728
H          0.42976        2.97801       -1.06435
C          0.38606        2.16230        0.80212
C          1.58543        3.04881        1.11003
N          0.26890        2.04296       -0.67377
N          1.43861        4.31991        0.39662
H          1.02995        1.40765       -1.00665
