29
1sa1msa1tma_16.log	Energy: -965657.4323703
S          2.55278        0.04261       -0.14627
O          3.83413       -0.01895       -0.80331
O          1.55466       -0.98301       -0.37358
O          2.78749       -0.02608        1.45611
O          1.97326        1.46310       -0.36068
H          3.51516        0.56757        1.68996
H          1.01541        1.59840        0.03987
S         -1.54022        1.41088        0.04715
O         -0.25488        1.89597        0.64681
O         -2.46535        0.86531        1.05213
O         -1.28708        0.46990       -1.08239
H         -1.08625       -1.09188       -0.50128
C         -2.30150        2.85223       -0.67070
H         -2.46961        3.57544        0.12750
H         -1.62374        3.25672       -1.42255
H         -3.24600        2.54947       -1.12275
N         -1.30715       -2.03327       -0.07923
C         -2.78583       -2.15132       -0.15232
H         -3.21789       -1.30262        0.37964
H         -3.08685       -2.11869       -1.19974
H         -3.09088       -3.09701        0.30118
C         -0.62427       -3.07995       -0.87704
H         -0.95114       -2.99683       -1.91408
H          0.45014       -2.91518       -0.81798
H         -0.89068       -4.06098       -0.47691
C         -0.83995       -2.00863        1.33352
H          0.23818       -1.85596        1.33435
H         -1.33463       -1.17642        1.83648
H         -1.10069       -2.95889        1.80533
