40
1sa1msa2eda_260.log	Energy: -1095276.7984893
S         -0.68464       -1.13379       -0.71187
O         -0.78278        0.24718       -1.30531
O         -0.29078       -1.04567        0.73052
O         -2.05615       -1.75608       -0.83608
O          0.31890       -1.96550       -1.45608
H         -3.02825       -0.62696       -1.00517
H          1.09843       -2.80976       -0.50731
S          1.54805        2.56518       -0.13985
O          1.98291        3.94780       -0.19306
O          2.53834        1.51507        0.07185
O          0.73575        2.28890       -1.46764
H          0.25572        1.39608       -1.43491
C          0.30702        2.37811        1.12756
H          0.79445        2.58178        2.08216
H         -0.49298        3.09456        0.94215
H         -0.06360        1.35185        1.08691
H         -5.06171        1.15423        0.34670
H         -5.35667       -0.53726       -0.13870
H         -4.60158       -0.29062        2.27696
H         -3.56517       -1.34152        1.30181
H         -2.76726        0.99648        2.62101
H         -1.85411        0.01771        1.64356
H         -3.96195        0.62390       -1.77523
H         -2.84536        0.95753       -0.58711
C         -4.59720        0.17734        0.18742
C         -3.88034       -0.30422        1.45355
N         -3.58448        0.30762       -0.88621
N         -2.72407        0.54578        1.71746
H          3.77691       -3.51759        0.67978
H          3.41579       -3.11885       -1.02639
H          4.31997       -1.15806        0.38498
H          2.80008       -0.82998       -0.43638
H          3.18447       -0.58443        2.22435
H          1.72788       -0.72810        1.50123
H          1.58703       -4.31470        0.19311
H          1.45917       -2.94246        1.14620
C          3.15269       -2.91603        0.01382
C          3.26164       -1.42863        0.35408
N          1.73571       -3.30995        0.22450
N          2.62024       -1.19618        1.64935
