32
1sa1msa1a1eda_282.log	Energy: -1011225.6839474
S          0.11063       -1.20213        0.17415
O         -0.39516       -1.00560        1.52503
O          1.43514       -1.83976        0.05755
O         -0.86060       -2.19758       -0.61115
O          0.08391        0.08466       -0.62515
H         -1.75129       -1.77372       -0.65982
H          1.51141        0.15265       -1.78541
S         -3.33923        0.65965       -0.12842
O         -3.12401       -0.68155       -0.68722
O         -4.50779        1.40412       -0.53959
O         -2.06860        1.55271       -0.44706
H         -1.23356        0.99360       -0.50562
C         -3.30710        0.52179        1.64356
H         -4.16677       -0.08580        1.92947
H         -2.37120        0.03688        1.92954
H         -3.38858        1.52535        2.06074
N          2.42556       -0.29218       -1.99093
H          3.23921        0.33164       -1.67256
H          2.49494       -0.55083       -2.97063
H          2.38530       -1.13137       -1.38325
H          4.95246        2.16610        0.93014
H          3.54800        2.74779        0.02052
H          2.93252        1.43778        2.08659
H          2.23400        0.80255        0.61069
H          4.28976       -0.44478        2.20875
H          3.09795       -1.11039        1.28953
H          5.18159        1.69526       -1.42802
H          5.04380        0.30331       -0.55721
C          4.09443        1.84839        0.32106
C          3.18059        0.93571        1.14265
N          4.53867        1.12727       -0.88527
N          3.79968       -0.37617        1.32504
