41
1sa1msa1tma1eda_135.log	Energy: -1085209.0506500
S         -0.60191       -0.84861       -1.07648
O         -1.52327        0.14239       -1.65554
O          0.50254       -1.27230       -1.92454
O         -0.10470       -0.29627        0.26661
O         -1.40637       -2.14649       -0.69856
H         -2.09416       -1.95725        0.05173
S          3.33500       -0.52334        0.55357
O          4.47919       -0.61486        1.43748
O          2.98153        0.78489       -0.00785
O          2.08618       -1.08968        1.34426
H          1.21648       -0.83119        0.89096
C          3.51666       -1.67041       -0.79111
H          4.36265       -1.33230       -1.39077
H          3.71412       -2.65307       -0.36292
H          2.58873       -1.66427       -1.36873
H         -3.77943       -0.09084        2.48658
H         -2.31613        0.21608        1.52176
H         -4.25981        1.39650        0.55605
H         -3.63273        0.16792       -0.55275
H         -6.09920       -0.03023        1.01686
H         -5.86078       -0.32654       -0.57678
H         -2.70217       -2.16509        2.08105
H         -4.00923       -2.11772        1.07687
C         -3.29638       -0.27031        1.51453
C         -4.15622        0.31198        0.39709
N         -3.09647       -1.70437        1.26673
N         -5.43682       -0.39273        0.34011
N          0.17703        2.35753       -0.08236
C         -1.22756        2.82977       -0.02846
H         -1.80596        2.24478       -0.74441
H         -1.61497        2.66543        0.97839
H         -1.25808        3.89537       -0.26777
C          1.02089        2.98006        0.96752
H          0.57691        2.77236        1.94207
H          2.01531        2.53740        0.91107
H          1.06041        4.05877        0.79863
C          0.76095        2.53107       -1.44057
H          1.74612        2.06581       -1.44348
H          0.10911        2.02785       -2.15519
H          0.83048        3.59931       -1.65937
H          0.14594        1.31473        0.09647
