35
1sa1msa1ma1eda_224.log	Energy: -1035882.4503539
S         -0.01561       -0.95463       -0.56337
O         -1.31111       -1.53082       -0.98406
O          1.14166       -1.42517       -1.32748
O         -0.08354        0.61523       -0.90040
O          0.18998       -1.05890        0.90790
H         -0.94099        0.97312       -0.56666
H          1.77341       -1.39651        1.25240
S         -3.77421        0.65259        0.10078
O         -4.72347        1.04337       -0.92125
O         -2.47507        1.34178        0.13591
O         -3.53684       -0.90308        0.09443
H         -2.64707       -1.16250       -0.33410
C         -4.52855        0.84220        1.69833
H         -4.75378        1.90202        1.82050
H         -5.44364        0.25032        1.71480
H         -3.82280        0.50165        2.45500
N          2.80980       -1.59265        1.24726
H          3.22801       -0.85926        0.55824
C          3.06168       -2.96109        0.74347
H          4.13590       -3.12673        0.65151
H          2.62736       -3.69401        1.42393
H          2.58342       -3.03889       -0.23312
H          3.18710       -1.45301        2.18105
H          2.83066        2.19480       -1.09314
H          2.09071        1.43391        0.30560
H          3.65872        3.17685        1.03687
H          4.25716        1.59245        1.54470
H          5.26715        3.09224       -0.76134
H          6.09343        2.62802        0.56882
H          2.89949       -0.16620       -1.34339
H          4.45599        0.33219       -1.02841
C          3.03959        1.55346       -0.22557
C          4.07130        2.22595        0.66901
N          3.52209        0.22865       -0.63777
N          5.33666        2.36826       -0.05288
