32
1sa1msa1a1eda_174.log	Energy: -1011230.1391077
S          2.60219       -0.19520       -0.16942
O          2.89263       -0.26090        1.26484
O          2.33362       -1.46859       -0.84439
O          1.55286        0.82417       -0.48400
O          3.94919        0.33731       -0.89156
H          4.37187        0.97280       -0.29813
S         -1.52545        1.92389        0.04205
O         -2.58524        2.51552        0.82819
O         -1.81134        0.67621       -0.67950
O         -0.29142        1.70018        1.00316
H          0.50713        1.32263        0.48430
C         -0.89921        3.08775       -1.14786
H         -1.68869        3.25845       -1.88044
H         -0.65076        4.00905       -0.62133
H         -0.01792        2.64826       -1.61826
N          0.13960       -1.05593        2.33648
H         -0.29681       -0.15081        2.49630
H          1.14829       -0.89214        2.30811
H         -0.06168       -1.64724        3.13599
H         -1.21861       -3.26227       -1.58225
H         -0.62311       -3.82347        0.00116
H         -3.04241       -3.88192        0.00674
H         -2.51459       -2.60900        1.10976
H         -4.36597       -2.11645       -0.60714
H         -3.16403       -1.00439       -0.57807
H          0.55869       -1.82907       -0.73316
H         -0.86767       -0.96155       -0.75271
C         -1.17185       -3.03231       -0.51607
C         -2.58091       -2.89071        0.04553
N         -0.39886       -1.77954       -0.33989
N         -3.37547       -1.98087       -0.76628
H         -0.26890       -1.55703        0.69135
