27
1sa1msa1a1ma_98.log	Energy: -951830.9239587
S          1.71201        0.96660       -0.10381
O          0.55635        0.39953       -0.89472
O          2.98827        0.81325       -0.78460
O          1.36198        2.34928        0.31001
O          1.75655        0.13325        1.24236
H         -0.16287        2.58124        0.18397
H          2.34123       -0.70359        1.08347
S         -2.42328       -0.48620        0.00387
O         -2.77074        0.32126       -1.16651
O         -2.34752        0.26264        1.26742
O         -1.11105       -1.28957       -0.24264
H         -0.32690       -0.62047       -0.48950
C         -3.58425       -1.81188        0.19215
H         -4.55601       -1.35576        0.38212
H         -3.59897       -2.38663       -0.73343
H         -3.27129       -2.42569        1.03629
N         -1.23514        2.60676        0.07786
H         -1.48673        2.19877       -0.82751
H         -1.60122        3.55078        0.15840
H         -1.65679        1.98393        0.78585
N          3.25448       -1.91306        0.56572
H          4.02736       -1.40912        0.13797
C          2.50707       -2.65924       -0.45685
H          3.10552       -3.43079       -0.95433
H          1.63640       -3.12831        0.00696
H          2.15007       -1.95262       -1.20909
H          3.63738       -2.53456        1.27046
