35
1sa1msa1ma1eda_287.log	Energy: -1035869.9091756
S          1.60732        0.69506       -0.05843
O          2.68342        1.70292       -0.15102
O          0.65537        0.71859       -1.18372
O          2.16235       -0.67010        0.17992
O          0.81063        1.12213        1.25109
H          3.84350       -0.52486        0.61799
H         -0.04760        0.63867        1.27983
S         -1.44209       -1.81753        0.04562
O         -2.74213       -2.45125        0.04139
O         -1.09401       -0.90496        1.13623
O         -1.28741       -1.06088       -1.34053
H         -0.55322       -0.38348       -1.29934
C         -0.17307       -3.06008       -0.04249
H         -0.23743       -3.64652        0.87496
H         -0.36915       -3.68244       -0.91541
H          0.78895       -2.54788       -0.11026
N          4.67387        0.11489        0.57937
H          4.16388        1.01571        0.40235
C          5.56487       -0.22517       -0.55312
H          6.35040        0.52502       -0.63682
H          6.00065       -1.21105       -0.39462
H          4.96152       -0.22819       -1.46034
H          5.15432        0.14012        1.47562
H         -3.31470        0.74769       -1.27522
H         -4.85126        1.55846       -0.93732
H         -3.14950        3.24669       -1.21006
H         -3.63361        3.20128        0.49745
H         -1.15847        2.07778       -0.60343
H         -1.32358        3.18692        0.58057
H         -4.36659       -0.31098        0.59463
H         -3.11872        0.54708        1.19177
C         -3.86329        1.33467       -0.51779
C         -3.11593        2.64261       -0.28954
N         -4.03025        0.63361        0.74963
N         -1.75281        2.36660        0.16863
