36
1sa1msa2dma_13.log	Energy: -1025830.6675289
S          2.61654       -0.17603       -0.13834
O          1.99306       -0.01224        1.17638
O          2.51589       -1.53886       -0.70606
O          2.21691        0.87673       -1.09897
O          4.20099        0.04895        0.15208
H          4.68807       -0.18315       -0.64998
S         -2.57687        0.08545        0.11244
O         -2.90191       -1.14252        0.85206
O         -1.48211       -0.12862       -0.89293
O         -2.26337        1.26892        0.95940
C         -4.02688        0.52794       -0.83068
H         -4.27171       -0.30116       -1.49471
H         -4.83963        0.70848       -0.12662
H         -3.80937        1.42974       -1.40353
N          0.13568        2.29511        0.06937
C          0.82921        3.04382        1.13778
C         -0.37105        3.12659       -1.04008
H          0.80387        1.60773       -0.33268
H          0.12870        3.74166        1.59900
H          1.19501        2.32366        1.86899
H          1.67338        3.58172        0.70388
H         -1.08891        3.84983       -0.65030
H          0.46677        3.63878       -1.51543
H         -0.85737        2.46442       -1.75650
H         -0.67711        1.78065        0.47479
N         -0.06115       -2.34165       -0.09062
C         -0.73446       -3.42733       -0.82982
C         -0.07396       -2.51699        1.38219
H          0.92144       -2.21543       -0.40767
H         -1.77893       -3.45970       -0.51620
H         -0.67542       -3.21479       -1.89734
H         -0.24264       -4.37678       -0.61208
H         -1.10984       -2.49588        1.72116
H          0.40627       -3.46618        1.62633
H          0.48821       -1.69240        1.82074
H         -0.55007       -1.44934       -0.34092
