32
1sa1msa1a1eda_164.log	Energy: -1011228.9542444
S          1.49534       -0.74645       -0.10019
O          2.75451       -0.23223       -0.66522
O          0.35568       -0.64575       -1.06200
O          1.67518       -2.29763        0.15307
O          1.13541       -0.10536        1.18695
H          2.65696       -2.49996        0.32097
H         -0.03903        1.13088        0.75043
S         -2.88788       -0.45261        0.06211
O         -2.89043        0.88157       -0.55993
O         -2.52048       -0.49097        1.46921
O         -2.02478       -1.44550       -0.78993
H         -1.03424       -1.16252       -0.85522
C         -4.48302       -1.19363       -0.17298
H         -5.19813       -0.57934        0.37470
H         -4.70926       -1.20116       -1.23857
H         -4.45044       -2.20418        0.23325
N          4.31601       -2.56123        0.41173
H          4.71942       -2.50911        1.34073
H          4.48941       -1.67959       -0.06797
H          4.77535       -3.30784       -0.09789
H         -0.22285        4.03223        0.14402
H          0.06438        3.30334        1.74525
H          2.21421        4.05624        0.56433
H          2.18918        2.33987        0.99104
H          2.25892        3.42625       -1.64678
H          2.44364        1.84855       -1.15584
H         -1.41708        1.92406        0.16628
H         -0.04274        1.78487       -0.76023
C          0.24250        3.19717        0.67357
C          1.73876        3.09553        0.34024
N         -0.39036        1.94713        0.19883
N          1.89046        2.69626       -1.05365
