38
1sa1msa1dma1eda_310.log	Energy: -1060545.5754393
S          0.18857       -1.55157       -0.35857
O          1.45484       -2.26270       -0.46986
O          0.03942       -0.79851        0.92793
O         -0.09187       -0.63343       -1.50103
O         -0.93940       -2.66887       -0.36955
H          1.26571        0.41736       -1.57552
H         -1.80738       -2.24459       -0.16675
S         -3.25885        0.25373        0.31368
O         -4.43607        0.85288        0.89846
O         -3.16923       -1.20819        0.22595
O         -1.99416        0.79189        1.10279
H         -1.22361        0.13607        1.05506
C         -3.01339        0.90878       -1.32213
H         -3.86458        0.58908       -1.92478
H         -2.98281        1.99626       -1.24939
H         -2.07961        0.49677       -1.71185
N          3.52662       -0.36754        0.46305
C          3.28368       -0.20502        1.89956
C          4.94066       -0.24560        0.11620
H          3.17077       -1.28279        0.18295
H          3.42840        0.84219        2.17795
H          2.25136       -0.48647        2.11530
H          3.95346       -0.83619        2.50017
H          5.28295        0.77097        0.33633
H          5.57474       -0.94642        0.67651
H          5.08174       -0.43613       -0.95212
H          2.64866        2.97994       -0.94249
H          1.41288        2.82226       -2.22001
H          0.42549        3.66805       -0.14912
H         -0.25483        2.08861       -0.55232
H          0.58808        2.58534        1.83495
H          0.94225        1.13812        1.19039
H          2.72771        0.87885       -2.22642
H          2.64822        0.57210       -0.55934
C          1.75118        2.43962       -1.25276
C          0.65598        2.60008       -0.20631
N          2.11774        1.00852       -1.42158
N          1.11535        2.13676        1.09478
