26
1sa1msa1dma_32.log	Energy: -940996.4085065
S         -0.86502       -1.19996        0.01354
O         -0.72151        0.15990        0.70583
O          0.13051       -2.13274        0.51345
O         -2.26797       -1.59678       -0.00435
O         -0.53660       -0.86820       -1.52510
H          0.37746       -0.49876       -1.56525
S          2.67225        0.57552       -0.05366
O          3.77913        1.50273       -0.11002
O          1.88992        0.33941       -1.27500
O          1.69104        1.07579        1.08711
H          0.76716        0.69529        0.96791
C          3.23207       -0.99918        0.55061
H          3.93366       -1.39053       -0.18721
H          3.72848       -0.83416        1.50668
H          2.36263       -1.65224        0.65376
N         -2.95031        1.44352        0.21854
C         -3.21559        1.25131       -1.23159
C         -3.98669        0.84986        1.10023
H         -2.00835        0.97542        0.44876
H         -4.14228        1.75955       -1.50296
H         -2.37481        1.65343       -1.79618
H         -3.28981        0.17941       -1.41488
H         -4.95962        1.28678        0.86927
H         -3.98587       -0.22600        0.92310
H         -3.71957        1.04793        2.13830
H         -2.84740        2.43736        0.42003
