28
1sa1msa1eda_66.log	Energy: -975730.8014143
S          2.27187       -0.68919        0.01629
O          1.89358        0.04582       -1.20474
O          2.95831        0.07459        1.05076
O          1.15043       -1.51807        0.55234
O          3.34721       -1.75969       -0.56026
H          3.82228       -2.13304        0.19452
S         -2.25167       -0.66324        0.05555
O         -2.36432        0.54072       -0.79322
O         -2.20278       -0.44272        1.49397
O         -1.08489       -1.55109       -0.45306
H         -0.12999       -1.46641        0.01680
C         -3.64094       -1.69667       -0.33800
H         -4.54001       -1.14295       -0.06638
H         -3.62175       -1.90747       -1.40679
H         -3.55744       -2.61338        0.24504
H          1.22694        3.28894       -0.48052
H         -0.38458        3.91900       -0.89498
H         -0.11751        3.51478        1.57735
H         -1.43752        2.58300        0.85978
H          1.14876        1.44487        1.65178
H         -0.39290        0.87860        1.90593
H          0.70004        1.15897       -1.22628
H         -0.95028        1.44406       -1.25990
C          0.15842        3.05915       -0.49539
C         -0.34800        2.68125        0.89731
N         -0.02692        1.90074       -1.41445
N          0.20630        1.40202        1.27956
H          0.05783        2.17158       -2.39149
