40
1sa1msa2eda_201.log	Energy: -1095280.1551755
S          0.64171       -1.12492       -0.93694
O          1.43468       -2.32277       -1.15369
O         -0.80332       -1.21379       -1.29967
O          0.59662       -0.81451        0.62461
O          1.22272        0.09990       -1.57600
H          1.53869       -0.91841        1.04158
H          0.05509        1.25969       -1.53787
S         -3.55832       -0.26501        0.34182
O         -4.59314       -0.22304       -0.67532
O         -2.65689        0.90133        0.41298
O         -2.71436       -1.57819        0.26747
H         -1.89115       -1.48415       -0.35683
C         -4.30414       -0.47644        1.93904
H         -4.95873        0.37985        2.10310
H         -4.87923       -1.40214        1.92110
H         -3.51412       -0.51803        2.68772
H         -0.05291        1.84148        1.20155
H          0.46214        3.52576        1.38553
H         -1.29294        3.58105       -0.20585
H          0.21628        3.76035       -1.14928
H         -1.45245        1.34107       -0.78607
H         -1.20173        2.16423       -2.20421
H          2.41358        2.24342        1.13800
H          1.87503        1.51113       -0.20998
C          0.45902        2.67563        0.69638
C         -0.36777        3.09011       -0.51509
N          1.83602        2.38292        0.31536
N         -0.76055        1.90011       -1.32567
H          4.94729       -1.75270        1.31746
H          3.68030       -2.30228        0.19277
H          5.12642       -0.58767       -0.84178
H          3.44689       -0.06743       -0.74393
H          5.63308        0.88137        0.95909
H          4.56505        1.75051        0.07874
H          2.87834       -1.76024        2.46943
H          3.24560       -0.18494        2.15963
C          4.03165       -1.45425        0.78591
C          4.33454       -0.28433       -0.14337
N          2.97046       -1.06841        1.73183
N          4.67051        0.91125        0.63874
