36
1sa1msa2dma_214.log	Energy: -1025798.1294185
S         -1.02858       -0.10100        0.22945
O          0.04733        0.15612        1.20659
O         -2.12299        0.89178        0.29766
O         -0.41104        0.12870       -1.22407
O         -1.54054       -1.49247        0.27681
H          0.47758       -0.30280       -1.27597
H         -3.30990       -1.46755        0.10038
S          3.07508       -0.96843       -0.15307
O          4.12234       -0.00733       -0.42350
O          1.97777       -1.10107       -1.12334
O          2.46149       -0.73723        1.28246
H          1.50884       -0.40080        1.24054
C          3.80440       -2.57369        0.06151
H          4.28746       -2.83173       -0.88137
H          4.53991       -2.50631        0.86302
H          3.01602       -3.28438        0.30637
N          0.59248        3.28341        0.56130
C          1.85559        2.75116        0.08053
C         -0.25350        3.76443       -0.51726
H          0.10436        2.55502        1.07119
H          2.46079        3.56046       -0.34364
H          2.41725        2.31656        0.91113
H          1.74127        1.97985       -0.70225
H          0.22022        4.63215       -0.99187
H         -0.44266        3.00772       -1.29889
H         -1.21678        4.08644       -0.11210
N         -4.12635       -0.83063       -0.03195
C         -5.15150       -1.04223        1.00797
C         -4.60741       -0.91730       -1.42648
H         -3.62152        0.07797        0.11099
H         -5.58895       -2.03488        0.89188
H         -4.67642       -0.95791        1.98525
H         -5.92775       -0.28215        0.90938
H         -5.02691       -1.90830       -1.60505
H         -5.36925       -0.15464       -1.59334
H         -3.76088       -0.74547       -2.09174
