23
1sa1msa1ma_36.log	Energy: -916325.9571037
S         -2.01401       -0.72814        0.08496
O         -1.03611       -0.24412       -0.90570
O         -1.90328       -2.11848        0.49769
O         -2.13227        0.24335        1.21350
O         -3.43162       -0.60561       -0.72562
H         -1.14708        1.43416        0.91082
H         -4.06182       -1.19731       -0.29408
S          2.32755       -0.17095        0.04782
O          1.95292        1.14853       -0.45339
O          1.98064       -0.52238        1.41267
O          3.94230       -0.27219       -0.08631
H          4.30162       -0.47136        0.79061
C          1.81031       -1.40806       -1.10377
H          0.72129       -1.31467       -1.17378
H          2.28743       -1.19440       -2.06033
H          2.11089       -2.37892       -0.71106
N         -0.52104        2.22082        0.54028
H         -0.28027        2.84934        1.30319
C         -1.22034        2.92024       -0.56396
H         -0.58057        3.70445       -0.96884
H         -1.43951        2.17409       -1.32692
H         -2.14935        3.34428       -0.18385
H          0.34759        1.78426        0.19145
