28
1sa1msa1eda_62.log	Energy: -975730.0967777
S         -1.54566       -1.44456       -0.06060
O         -0.37810       -2.08360       -0.72700
O         -2.48912       -0.77404       -0.93639
O         -2.39762       -2.67002        0.56900
O         -1.09302       -0.63362        1.09814
H         -1.80205       -3.21718        1.09871
H         -0.62289        0.91541        0.96716
S          2.36567       -0.00204       -0.04009
O          2.23433        0.71009        1.23602
O          1.71311        0.61543       -1.19019
O          1.92843       -1.49568        0.10859
H          0.97235       -1.69217       -0.24059
C          4.09753       -0.21865       -0.36427
H          4.53609        0.77597       -0.44913
H          4.53677       -0.76350        0.47100
H          4.20428       -0.77185       -1.29676
H         -0.38685        3.78417        0.16400
H          0.45632        2.48542       -0.73062
H         -1.86066        3.12154       -1.66164
H         -1.59066        1.40897       -1.35044
H         -3.53224        3.03581       -0.11944
H         -3.28098        1.41913        0.02434
H          0.60260        1.88365        1.50594
H         -1.03006        2.27491        1.79170
C         -0.41952        2.73142       -0.12918
C         -1.71119        2.38259       -0.86728
N         -0.34742        1.92255        1.12055
N         -2.83362        2.32954        0.07031
