36
1sa1msa1ma1tma_72.log	Energy: -1025808.9336318
S         -0.10241       -0.83845       -0.49143
O          0.47382        0.48841       -0.83986
O         -1.34241       -1.13874       -1.20604
O          0.94279       -1.93465       -0.98290
O         -0.24337       -0.99466        0.98384
H          1.84607       -1.66910       -0.68625
H         -1.84081       -1.06782        1.32664
S          3.81888        0.40344        0.06227
O          4.76108        0.87356       -0.93253
O          3.30638       -0.96831       -0.05906
O          2.60621        1.39876        0.20479
H          1.74717        1.02609       -0.20657
C          4.55035        0.57084        1.67343
H          5.44395       -0.05396        1.68541
H          4.81183        1.61868        1.81981
H          3.82761        0.23575        2.41644
N         -2.89551       -1.04791        1.40388
H         -3.14730       -0.95913        2.38552
C         -3.48198       -2.26268        0.79353
H         -4.57065       -2.19027        0.80654
H         -3.11203       -2.31882       -0.22999
H         -3.16050       -3.14632        1.34539
H         -3.22127       -0.16226        0.86941
N         -3.68179        1.19137        0.00803
C         -3.95231        0.78486       -1.37482
H         -3.06349        0.30204       -1.78556
H         -4.78002        0.06907       -1.38910
H         -4.22697        1.64887       -2.00030
C         -4.86540        1.78694        0.62265
H         -5.69280        1.07111        0.60320
H         -4.65268        2.04773        1.66404
H         -5.18501        2.70052        0.09670
C         -2.54177        2.11298        0.06313
H         -2.30653        2.34251        1.10683
H         -1.66503        1.65290       -0.39770
H         -2.76319        3.05583       -0.46077
