30
1sa1msa2ma_60.log	Energy: -976491.6026546
S          2.15280       -0.93228       -0.03533
O          2.80220        0.04400       -0.92899
O          2.31223       -0.63713        1.39195
O          0.75622       -1.19255       -0.46165
O          2.85949       -2.36724       -0.29628
H          3.74481       -2.33986        0.09148
S         -2.50346       -0.55588       -0.24724
O         -2.94272       -1.40326       -1.33738
O         -1.96859        0.77135       -0.59145
O         -1.48417       -1.29570        0.70151
H         -0.54805       -1.33194        0.29480
C         -3.82950       -0.33062        0.91234
H         -4.15000       -1.31344        1.25735
H         -3.46985        0.28057        1.73940
H         -4.63639        0.17112        0.37739
N          1.07144        2.08651        1.59859
H          1.75881        1.33757        1.70829
C         -0.14758        1.72158        2.33317
H          0.01642        1.60314        3.41051
H         -0.91549        2.48373        2.17347
H         -0.52281        0.77479        1.93900
H          1.47931        2.93364        1.98118
N          0.59506        1.79316       -1.13266
H          1.37980        1.17447       -1.39639
H         -0.28015        1.24737       -1.14906
C          0.50772        3.00096       -1.97181
H         -0.31761        3.62127       -1.62171
H          1.44269        3.55683       -1.89730
H          0.33333        2.71958       -3.01033
H          0.76907        2.02674       -0.10253
