29
1sa1msa1tma_09.log	Energy: -965660.2616410
S         -0.71309        1.78226       -0.11348
O         -0.65439        0.53192       -1.00051
O          0.48156        2.58889       -0.30870
O         -2.02380        2.39532       -0.17000
O         -0.64367        1.14526        1.38167
H          0.21108        0.66556        1.46551
S          2.40219       -0.69485        0.07061
O          3.31183       -1.81783        0.07576
O          1.50799       -0.52054        1.22772
O          1.51288       -0.80979       -1.23354
H          0.69426       -0.20917       -1.17529
C          3.28913        0.82556       -0.16659
H          3.92573        0.96398        0.70808
H          3.88852        0.72411       -1.07114
H          2.55878        1.63395       -0.25584
N         -2.26728       -1.31665       -0.05299
C         -2.89458       -1.97836       -1.21992
H         -3.47289       -1.23840       -1.77366
H         -2.11035       -2.37978       -1.86245
H         -3.54716       -2.78404       -0.87590
C         -1.38614       -2.23845        0.70667
H         -0.63982       -2.65179        0.02735
H         -0.87467       -1.67323        1.48513
H         -1.98930       -3.03868        1.14153
C         -3.27252       -0.65593        0.81951
H         -2.74755       -0.15507        1.63229
H         -3.80374        0.09437        0.23358
H         -3.96427       -1.40953        1.20327
H         -1.63782       -0.54705       -0.44264
