35
1sa1msa1ma1eda_202.log	Energy: -1035883.8483383
S          1.78439       -1.77518       -0.15004
O          1.81421       -3.16545       -0.56703
O          0.59154       -0.98885       -0.56439
O          1.60530       -1.80635        1.48941
O          3.01088       -0.99316       -0.39253
H          1.93382       -2.66253        1.79336
H          2.66039        0.70480       -0.32232
S         -2.62733       -0.31788       -0.12488
O         -2.61638        0.66287       -1.20741
O         -2.16114        0.14288        1.18117
O         -1.86403       -1.62633       -0.54921
H         -0.85524       -1.46428       -0.56125
C         -4.26138       -0.99217        0.03577
H         -4.91645       -0.16828        0.32015
H         -4.55737       -1.40805       -0.92686
H         -4.24242       -1.75908        0.80914
N          0.62343        1.18439        1.82885
H         -0.20111        0.81078        1.35765
C          0.21626        2.31247        2.67001
H         -0.55206        2.04338        3.40321
H          1.08410        2.71177        3.20381
H         -0.18100        3.09277        2.01648
H          0.98695        0.41286        2.38381
H          2.14695        3.51017       -1.12228
H          2.73502        2.16815       -2.12315
H          0.46467        2.50026       -2.77201
H          0.45811        1.05333       -1.76021
H         -0.51406        3.69054       -0.99259
H         -1.22945        2.22467       -0.83907
H          3.22419        2.10364        0.34681
H          1.60405        1.59126        0.67140
C          2.03476        2.44172       -1.32890
C          0.60026        2.13786       -1.74239
N          2.40868        1.69262       -0.10182
N         -0.33845        2.71283       -0.78626
