36
1sa1msa2dma_48.log	Energy: -1025817.5105504
S         -1.00116        0.50511       -0.55273
O          0.02624        0.63585       -1.59502
O         -0.96971       -0.83048        0.12988
O         -0.91782        1.60801        0.44851
O         -2.40334        0.58434       -1.24008
H         -3.11575        0.07715       -0.62499
S          2.46430       -1.64002        0.18700
O          3.47909       -2.57491        0.62157
O          2.75313       -0.20585        0.35862
O          1.13363       -2.00404        0.93860
H          0.32035       -1.46848        0.62369
C          2.07483       -1.90422       -1.52798
H          2.98777       -1.70600       -2.09120
H          1.76902       -2.94372       -1.64556
H          1.28110       -1.20790       -1.81262
N          1.67063        2.30953        0.27532
C          2.23467        2.86906        1.51896
C          1.90832        3.11946       -0.93699
H          2.05239        1.35344        0.14110
H          1.77433        3.83784        1.71885
H          2.02166        2.17968        2.33560
H          3.31415        2.98281        1.40933
H          1.46311        4.10619       -0.79902
H          2.98245        3.21570       -1.10458
H          1.43095        2.60943       -1.77361
H          0.63362        2.15091        0.38834
N         -3.97205       -0.69918        0.31932
C         -5.28132       -1.07235       -0.21344
C         -4.03987        0.03540        1.58608
H         -3.39165       -1.52513        0.44890
H         -5.84723       -0.16283       -0.43308
H         -5.14989       -1.62702       -1.14489
H         -5.86213       -1.68316        0.49063
H         -4.55057        0.98737        1.41788
H         -4.57916       -0.52441        2.36155
H         -3.02437        0.24678        1.92651
