35
1sa1msa1ma1eda_18.log	Energy: -1035904.0081970
S         -2.35954        0.81368       -0.46120
O         -3.79294        0.65597       -0.32670
O         -1.87871       -0.56138       -1.18386
O         -1.88549        1.93125       -1.30397
O         -1.60614        0.80386        0.84197
H         -0.21610        2.33609       -0.98820
H         -1.52113       -0.65770        1.48985
S          1.73492       -1.49307       -0.31322
O          0.94580       -2.37380        0.58845
O          2.83936       -0.77959        0.34282
O          0.84184       -0.55463       -1.07850
H         -0.89320       -0.58927       -1.22541
C          2.44175       -2.57732       -1.53867
H          1.62886       -3.08950       -2.05342
H          3.02076       -1.97035       -2.23473
H          3.08376       -3.29032       -1.02115
N         -1.39635       -1.67466        1.77512
H         -0.50394       -1.98694        1.32184
C         -2.55716       -2.47999        1.32433
H         -2.39439       -3.52870        1.57302
H         -3.46114       -2.10678        1.80485
H         -2.64975       -2.35111        0.24668
H         -1.27219       -1.72172        2.78367
H          0.92635        3.83266        0.65054
H          0.01094        2.46176        1.33626
H          2.40346        2.76751        2.28670
H          2.02847        1.15941        1.66253
H          4.03460        2.86931        0.70714
H          3.63721        1.34600        0.21657
H          1.48645        2.52220       -1.19313
H          0.83918        1.13322       -0.59523
C          0.89448        2.74591        0.76277
C          2.18542        2.20335        1.37379
N          0.73690        2.17016       -0.59624
N          3.27501        2.27725        0.39930
