33
1sa1msa1ma1dma_106.log	Energy: -1001154.0628310
S          0.33489       -0.45478       -0.94230
O          1.62841       -0.86233       -1.49419
O         -0.39020       -1.53180       -0.23067
O          0.44805        0.76645       -0.08459
O         -0.54095       -0.04615       -2.20740
H          2.07443        1.09318        0.15023
H         -1.47065        0.10494       -1.90870
S         -3.34692        0.21447        0.33441
O         -4.74468        0.19316        0.70053
O         -2.98882        0.31705       -1.08606
O         -2.66905       -1.07691        0.94462
H         -1.79284       -1.27920        0.48847
C         -2.52670        1.54303        1.18809
H         -2.96199        2.47320        0.82051
H         -2.71482        1.42319        2.25499
H         -1.46092        1.48829        0.95328
N          3.50613       -1.59038        0.64608
H          3.05239       -1.84114       -0.23323
C          2.63735       -1.98027        1.76729
H          2.46941       -3.06068        1.83020
H          3.07861       -1.63923        2.70804
H          1.66284       -1.50130        1.64347
H          4.39394       -2.07963        0.69230
N          3.11882        1.12071        0.25638
C          3.49039        1.94240        1.42068
C          3.71077        1.55742       -1.02447
H          3.38818        0.09803        0.43162
H          3.17556        2.97511        1.26066
H          2.99310        1.54387        2.30576
H          4.57231        1.90751        1.56316
H          3.40732        2.58426       -1.23604
H          4.79922        1.49911       -0.95915
H          3.33885        0.89189       -1.80404
