33
1sa1msa1a1tma_59.log	Energy: -1001152.4670305
S          1.94951       -1.29292       -0.26404
O          2.51601       -2.19099       -1.25490
O          2.88460       -0.54455        0.57400
O          0.85989       -0.39969       -0.77384
O          1.07233       -2.25365        0.76093
H          1.56648       -3.07744        0.86734
S         -2.39299       -0.55015       -0.02871
O         -3.76496       -0.34471       -0.44082
O         -1.69689        0.54180        0.66372
O         -1.56315       -0.94663       -1.31237
H         -0.56702       -0.83302       -1.14260
C         -2.27978       -2.00029        0.99255
H         -2.81433       -1.78902        1.91941
H         -2.74803       -2.82548        0.45600
H         -1.22221       -2.19929        1.17754
N          0.88826        0.97390        2.38719
H          0.02579        0.44860        2.26432
H          1.00375        1.14178        3.38095
H          1.65597        0.37613        2.08130
N          0.38813        2.34760       -0.28467
C          1.85140        2.60457       -0.28693
H          2.19647        2.57981        0.74533
H          2.34103        1.80911       -0.84659
H          2.03424        3.57912       -0.74447
C         -0.16381        2.28355       -1.66175
H          0.36458        1.50333       -2.20736
H         -1.22322        2.03714       -1.59924
H         -0.02597        3.25532       -2.14014
C         -0.34257        3.32706        0.55790
H         -1.39633        3.05104        0.56912
H          0.06502        3.25929        1.56551
H         -0.20377        4.32428        0.13490
H          0.25443        1.41589        0.14090
