33
1sa1msa1ma1dma_45.log	Energy: -1001157.5755411
S          1.60658       -0.17681        0.65539
O          1.96788        0.37402       -0.68919
O          0.75825       -1.48772        0.39831
O          2.80667       -0.66978        1.37085
O          0.78397        0.76796        1.42905
H          3.98156       -1.05756        0.18094
H         -0.43078        1.59915        0.53325
S         -2.81322       -0.92639       -0.32625
O         -3.72280       -1.52936       -1.29216
O         -3.24769        0.41122        0.19031
O         -1.38965       -0.82990       -0.80813
H         -0.10989       -1.26201       -0.08196
C         -2.75341       -1.99164        1.10825
H         -3.75752       -2.04362        1.52989
H         -2.42486       -2.97954        0.78326
H         -2.05143       -1.57177        1.83007
N          4.30087       -0.86803       -0.80400
H          4.44880       -1.73984       -1.30644
C          5.47282        0.03239       -0.83495
H          5.70799        0.29240       -1.86675
H          5.21427        0.93235       -0.27793
H          6.32665       -0.45680       -0.36692
H          3.42814       -0.38371       -1.14555
N         -1.19443        2.10329        0.03630
C         -0.81684        2.26876       -1.38305
C         -1.48855        3.36145        0.74442
H         -2.03457        1.45883        0.09324
H          0.10548        2.84810       -1.44735
H         -0.66497        1.27499       -1.80337
H         -1.62748        2.77770       -1.90781
H         -0.61521        4.01544        0.70988
H         -2.33991        3.85142        0.26911
H         -1.73225        3.13156        1.78176
