30
1sa1msa1a1dma_87.log	Energy: -976494.1774451
S         -2.07577       -0.94436       -0.03051
O         -2.22314       -1.41454        1.34312
O         -2.71189        0.36201       -0.30494
O         -0.68339       -0.98325       -0.55202
O         -2.81885       -2.02284       -0.98876
H         -3.67770       -2.22856       -0.59486
S          2.51841       -0.42551        0.03078
O          3.78648       -0.53706        0.71563
O          1.96123        0.90721       -0.21582
O          1.46594       -1.28318        0.84688
H          0.56154       -1.22842        0.40059
C          2.59191       -1.27651       -1.53146
H          3.26199       -0.70935       -2.17838
H          2.98286       -2.27792       -1.35272
H          1.58413       -1.31751       -1.94827
N         -0.30538        0.88844        2.39263
H         -0.38192        1.40684        3.26227
H          0.56605        0.36670        2.44071
H         -1.04984        0.19105        2.39583
N         -0.59615        2.11304       -0.34247
C         -0.29221        2.11140       -1.78876
C         -0.72681        3.45184        0.26305
H         -1.46934        1.56094       -0.19911
H          0.66623        2.60319       -1.95422
H         -0.24027        1.07321       -2.11408
H         -1.09176        2.63114       -2.31882
H          0.20232        4.00329        0.11224
H         -1.55795        3.97957       -0.20672
H         -0.91125        3.31754        1.32789
H          0.13511        1.58853        0.16237
