33
1sa1msa1ma1dma_173.log	Energy: -1001147.6350193
S         -0.45757       -0.88960       -0.57255
O          0.17728        0.40811       -0.93444
O         -1.66299       -1.17381       -1.36283
O          0.57203       -2.03320       -0.97604
O         -0.69457       -0.98586        0.89008
H          1.46894       -1.78784       -0.64426
H         -2.45555       -0.97679        1.14324
S          3.46920        0.24169        0.12250
O          4.43897        0.67065       -0.86433
O          2.92748       -1.12014        0.01798
O          2.27514        1.26568        0.22496
H          1.43155        0.91753       -0.23595
C          4.17402        0.42489        1.74346
H          5.05215       -0.22036        1.78286
H          4.45797        1.46885        1.87489
H          3.43110        0.12031        2.47958
N         -3.40775       -0.87961        0.73107
H         -3.54879        0.17098        0.55052
C         -4.48125       -1.49324        1.52867
H         -5.43468       -1.37414        1.01291
H         -4.27623       -2.55403        1.67366
H         -4.53357       -1.00035        2.49980
H         -3.27053       -1.30386       -0.19578
N         -3.49561        1.81359        0.09508
C         -3.40707        1.81614       -1.37219
C         -2.29482        2.38335        0.72204
H         -4.30370        2.36061        0.37763
H         -2.59866        1.14897       -1.68278
H         -4.34354        1.44142       -1.79435
H         -3.21187        2.81821       -1.77700
H         -1.42266        1.79263        0.43053
H         -2.12038        3.42408        0.41743
H         -2.39587        2.34432        1.80984
