33
1sa1msa1a1tma_73.log	Energy: -1001137.5111016
S          3.01729        0.16451        0.44497
O          2.37462        1.47421        0.42957
O          4.21591       -0.02990        1.22530
O          1.97615       -0.90976        0.95291
O          3.27364       -0.22331       -1.04932
H          1.07728       -0.72596        0.56084
H          3.98787       -0.98071       -1.09083
S         -0.98110        1.02299       -0.23494
O         -1.62838        1.46824        0.98340
O         -0.31919       -0.29484       -0.20724
O          0.07227        2.09651       -0.74638
H          0.96095        1.93358       -0.32617
C         -2.12583        1.04089       -1.57873
H         -2.92047        0.34010       -1.28281
H         -2.51069        2.05612       -1.67790
H         -1.60479        0.72150       -2.48047
N          5.13287       -2.05038       -0.95036
H          4.80330       -3.00958       -0.90719
H          5.54415       -1.81674       -0.04892
H          5.85922       -1.99507       -1.65706
N         -4.20826       -0.87809        0.01964
C         -5.12067       -1.69770       -0.75827
H         -5.72074       -1.06459       -1.41925
H         -4.55217       -2.39877       -1.37705
H         -5.81105       -2.28243       -0.12118
C         -3.36256       -1.69940        0.87416
H         -2.75479       -2.37022        0.26018
H         -2.68796       -1.06047        1.44888
H         -3.95536       -2.30997        1.58095
C         -4.91946        0.12603        0.79588
H         -4.19872        0.76069        1.31856
H         -5.51466        0.75710        0.12808
H         -5.60170       -0.32338        1.54157
