28
1sa1msa1eda_95.log	Energy: -975731.2196619
S         -1.45308        1.61618       -0.01930
O         -2.36599        0.58830        0.49568
O         -0.55913        0.94647       -1.07594
O         -2.02163        2.86472       -0.46245
O         -0.42258        2.00674        1.14910
H          0.15719        1.24347        1.35660
S          2.28446       -0.16049        0.04357
O          2.25557       -1.45205       -0.63192
O          1.45616       -0.04024        1.25301
O          1.94393        1.00489       -0.94899
H          0.91729        1.08385       -1.05810
C          3.96051        0.25685        0.44375
H          4.31928       -0.50435        1.13700
H          4.54189        0.24773       -0.47793
H          3.96776        1.24257        0.90753
H         -1.17286       -3.55911       -1.01799
H          0.25844       -2.48032       -0.90750
H         -0.66268       -3.23227        1.35923
H         -0.57620       -1.48746        1.15461
H         -2.92433       -3.01263        1.57160
H         -2.78579       -1.36966        1.39697
H         -1.68198       -1.74670       -2.39972
H         -2.49139       -1.49053       -0.94774
C         -0.80287       -2.58838       -0.67860
C         -1.09235       -2.38847        0.81178
N         -1.56746       -1.53912       -1.41085
N         -2.53595       -2.27147        1.00507
H         -1.12725       -0.58201       -1.31189
