32
1sa1msa1a1eda_305.log	Energy: -1011222.6535536
S         -0.55743       -1.76946        0.19928
O         -0.11844       -0.93818        1.35448
O         -0.68031       -0.95360       -1.03487
O          0.61129       -2.82361       -0.07363
O         -1.75173       -2.56607        0.49027
H          1.40566       -2.30662       -0.33624
H         -3.30376       -1.65649       -0.45184
S          2.58767        0.47691       -0.22027
O          2.07834        1.44232       -1.17833
O          2.61062       -0.94014       -0.60040
O          1.86010        0.62952        1.17000
H          1.05646       -0.00837        1.24152
C          4.23491        0.94844        0.25139
H          4.84295        0.91870       -0.65329
H          4.19801        1.95912        0.65734
H          4.60042        0.23790        0.99171
N         -3.35058       -0.89487       -1.14275
H         -3.54216        0.05908       -0.65416
H         -4.02282       -1.10041       -1.87502
H         -2.37066       -0.85709       -1.49758
H         -2.66180        2.39302        1.83641
H         -2.27837        0.68350        1.56334
H         -0.37288        2.13190        0.96940
H         -0.95264        1.23670       -0.42371
H         -1.41178        4.07894        0.07767
H         -0.79674        3.34769       -1.24310
H         -4.48336        1.61999        0.64517
H         -3.53499        2.30514       -0.50663
C         -2.45888        1.63954        1.06265
C         -1.21494        2.03618        0.27337
N         -3.60857        1.51519        0.13953
N         -1.48382        3.24986       -0.50387
