42
1sa1msa2tma_01.log	Energy: -1075146.5914103
S         -0.54828        1.66403       -0.71676
O         -0.74438        0.39876       -1.66487
O          0.35330        2.61633       -1.36315
O         -1.94155        2.13897       -0.52430
O          0.00999        1.13021        0.56492
H         -2.69022        0.83931        0.09988
H          1.61752        1.15967        0.59658
S          0.86294       -2.32200       -0.08904
O         -0.53391       -2.34529        0.39328
O          1.87953       -2.09169        0.95478
O          1.04449       -1.39749       -1.26100
H         -0.01988       -0.29434       -1.51376
C          1.18495       -3.95006       -0.75589
H          0.45471       -4.14953       -1.54049
H          2.19697       -3.96293       -1.16128
H          1.08668       -4.67268        0.05481
N          2.66078        1.35056        0.60413
C          2.80263        2.82005        0.73858
H          2.27099        3.29026       -0.08962
H          2.35128        3.13075        1.68150
H          3.86413        3.07952        0.72577
C          3.24399        0.61638        1.75309
H          2.78038        0.98295        2.66997
H          3.02132       -0.44461        1.62515
H          4.32141        0.79854        1.78145
C          3.19969        0.86718       -0.69326
H          2.97409       -0.19492       -0.78710
H          2.69602        1.41200       -1.49283
H          4.27672        1.05178       -0.71816
N         -3.26499        0.06619        0.54159
C         -2.57796       -0.34224        1.79602
H         -1.61711       -0.78901        1.53533
H         -2.42750        0.54650        2.40926
H         -3.20578       -1.06886        2.31810
C         -4.58858        0.67401        0.80136
H         -4.45976        1.52421        1.47188
H         -5.01023        1.01968       -0.14308
H         -5.24671       -0.06879        1.25795
C         -3.34613       -1.05577       -0.42988
H         -3.70368       -0.66300       -1.38207
H         -2.34981       -1.48490       -0.54422
H         -4.03771       -1.80695       -0.03975
