33
1sa1msa1a1tma_29.log	Energy: -1001157.0576701
S          1.55924        0.46207       -0.06361
O          0.97966        0.67486        1.27421
O          1.68720       -0.98881       -0.40231
O          0.83911        1.23159       -1.10064
O          3.03978        1.02440       -0.06673
H          3.70627        0.26321        0.04085
S         -1.59503       -2.00527       -0.09685
O         -2.63664       -2.99268       -0.29086
O         -1.89911       -0.59953       -0.37540
O         -0.35343       -2.45995       -0.95749
H          0.43129       -1.83515       -0.82208
C         -0.98535       -2.09281        1.57566
H         -1.82274       -1.85312        2.23290
H         -0.63877       -3.11008        1.75704
H         -0.18054       -1.36187        1.69105
N          4.60236       -1.12841        0.08193
H          5.32794       -1.21212       -0.62167
H          3.83831       -1.75621       -0.16162
H          4.98653       -1.41608        0.97525
N         -1.35066        2.34858       -0.00901
C         -0.59486        3.62085        0.09789
H          0.18122        3.49409        0.85283
H         -0.12632        3.82863       -0.86334
H         -1.28110        4.42288        0.37885
C         -2.38552        2.39923       -1.07044
H         -1.89939        2.64902       -2.01383
H         -2.84348        1.41367       -1.14695
H         -3.12699        3.15865       -0.81202
C         -1.90991        1.93784        1.30275
H         -2.42853        0.99094        1.16625
H         -1.07932        1.80245        1.99483
H         -2.59432        2.71554        1.65068
H         -0.63800        1.64571       -0.32332
