32
1sa1msa1a1eda_209.log	Energy: -1011230.6170943
S          2.24753       -0.83900       -0.40438
O          1.33048       -0.94348       -1.69840
O          3.61786       -0.98248       -0.80413
O          1.84881        0.35091        0.33923
O          1.82809       -2.12290        0.42379
H          0.83407       -2.16669        0.44095
S         -1.83638       -1.15913        0.33446
O         -2.72358       -0.53482       -0.65615
O         -1.32620       -0.22922        1.37061
O         -0.69844       -1.91051       -0.31564
H          0.41524       -1.21618       -1.41266
C         -2.76871       -2.41295        1.19019
H         -3.61254       -1.92519        1.67861
H         -3.11485       -3.13728        0.45301
H         -2.11824       -2.88578        1.92596
N          2.03519        2.64070        2.22637
H          2.41051        1.79808        1.79002
H          2.00649        2.48143        3.22847
H          2.69162        3.39602        2.05789
H          0.08571        3.71311       -0.72933
H          0.93711        2.15915       -0.93753
H         -1.00461        2.58687       -2.58690
H         -1.06642        1.05636       -1.72161
H         -2.98665        3.09160       -1.60275
H         -2.97448        1.62428       -0.85149
H          0.43341        2.56616        1.36673
H         -1.23840        2.70574        0.94284
C         -0.01620        2.62495       -0.68734
C         -1.14551        2.14042       -1.59725
N         -0.33810        2.27369        0.71724
N         -2.44307        2.47655       -1.01227
H         -0.48812        1.25127        0.84898
