38
1sa1msa1dma1eda_362.log	Energy: -1060534.2678693
S          0.63546       -1.63955        0.39103
O         -0.50218       -2.57895        0.47261
O          0.69358       -0.90510       -0.87910
O          0.41319       -0.54791        1.55888
O          1.93963       -2.23752        0.76315
H         -0.51727       -0.22836        1.50219
H          3.07425       -1.32725        0.14306
S         -2.80339       -0.12861       -0.28859
O         -2.39687        0.71753       -1.39482
O         -2.18664        0.12680        1.02166
O         -2.65150       -1.65688       -0.64014
H         -1.80513       -2.05248       -0.23682
C         -4.56568       -0.03247       -0.09948
H         -4.80387        1.00815        0.12223
H         -5.02440       -0.34057       -1.03888
H         -4.86280       -0.68668        0.71917
N          3.81011       -0.65314       -0.23862
C          3.59427        0.67831        0.39155
C          3.71796       -0.62666       -1.71995
H          4.71265       -1.02932        0.04879
H          2.68275        1.12131       -0.03390
H          3.48803        0.53558        1.46742
H          4.45069        1.31954        0.17328
H          2.69529       -0.34775       -1.97283
H          4.43391        0.09614       -2.11473
H          3.92887       -1.62454       -2.10474
H         -0.96085        2.26083        0.77359
H         -0.67949        3.96418        1.08938
H         -0.56078        3.51979       -1.28282
H          1.01022        4.08472       -0.68763
H          0.40606        1.23535       -1.11627
H          1.21733        2.18226       -2.15549
H          1.10147        1.70571        1.63022
H          1.63392        3.25914        1.68639
C         -0.18889        3.03709        0.76832
C          0.30744        3.24022       -0.66522
N          0.81145        2.66900        1.76282
N          1.00728        2.05732       -1.16988
