35
1sa1msa1ma1eda_57.log	Energy: -1035900.5107604
S          1.49611        1.69248        0.20241
O          0.82557        2.78339        0.91850
O          1.72692        0.48712        1.25815
O          0.63492        1.10658       -0.86730
O          2.86340        1.94033       -0.28279
H         -1.02070        1.23654       -0.34355
H          3.01153        0.29494       -1.05594
S         -0.59199       -1.87831        0.13406
O          0.75413       -2.14425       -0.43729
O         -1.61550       -1.51125       -0.86260
O         -0.54099       -0.90632        1.27545
H          0.88247       -0.02673        1.36906
C         -1.10783       -3.42519        0.86038
H         -0.36933       -3.71795        1.60662
H         -2.08252       -3.27371        1.32515
H         -1.17019       -4.16844        0.06518
N          2.93760       -0.73345       -1.20954
H          1.96265       -1.03789       -0.96813
C          3.89225       -1.45107       -0.33403
H          3.74660       -2.52386       -0.45396
H          4.91280       -1.16779       -0.59119
H          3.66936       -1.15706        0.69075
H          3.08862       -0.93243       -2.19580
H         -3.53701        2.59256        0.53977
H         -2.60185        2.95192       -0.93699
H         -4.62275        1.51895       -1.39218
H         -3.11741        0.71015       -1.83753
H         -4.99522       -0.27260       -0.07349
H         -3.44911       -0.83186       -0.27598
H         -1.18349        2.21736        0.93010
H         -1.96724        0.73221        0.91917
C         -2.93131        2.16053       -0.25991
C         -3.71136        1.06795       -0.98760
N         -1.72842        1.55971        0.35718
N         -4.01792       -0.01613       -0.06116
