35
1sa1msa1ma1eda_269.log	Energy: -1035877.5947107
S          0.38645       -0.71659       -0.77418
O         -0.80751       -1.51270       -1.12213
O          1.53821       -0.90305       -1.64582
O         -0.01928        0.83912       -1.00079
O          0.71195       -0.81391        0.67744
H         -0.89281        0.99996       -0.56776
H          1.64197        0.37465        1.20812
S         -3.51613        0.14756        0.16067
O         -4.40376        0.42626       -0.94972
O         -2.35700        1.03860        0.34857
O         -3.01744       -1.34502        0.15019
H         -2.13100       -1.44324       -0.34589
C         -4.44946        0.13417        1.67109
H         -4.88028        1.12886        1.78835
H         -5.23495       -0.61519        1.57430
H         -3.77667       -0.10422        2.49383
N          3.97938       -1.64482        0.13351
H          3.26800       -1.52107       -0.58647
C          3.53877       -2.66731        1.08464
H          3.39080       -3.66149        0.63993
H          4.27230       -2.76060        1.89206
H          2.58542       -2.35564        1.51856
H          4.82464       -1.94837       -0.33915
H          4.00280        2.21841        1.41804
H          3.98994        0.50113        0.83961
H          4.04168        2.27932       -1.03340
H          2.74896        1.08533       -1.13688
H          2.44335        3.89711       -0.70923
H          1.31184        2.75770       -1.10027
H          2.23963        1.19182        2.56418
H          1.56984        2.06121        1.28403
C          3.45253        1.45537        0.86043
C          3.11912        1.93499       -0.55603
N          2.14927        1.24657        1.55327
N          2.09024        2.97554       -0.48800
