41
1sa1msa1tma1eda_113.log	Energy: -1085207.3449035
S         -0.29804       -1.86940       -0.63075
O          0.54455       -2.12648       -1.78964
O         -0.26408       -0.42350       -0.19337
O         -1.72633       -2.27073       -0.75798
O          0.22672       -2.69208        0.59999
H          1.26887       -2.57800        0.73868
S          0.40035        2.72241        0.00668
O          1.48244        2.54484        0.96803
O         -0.96938        2.71398        0.52071
O          0.52814        1.70367       -1.18341
H          0.23429        0.75463       -0.87133
C          0.67660        4.23837       -0.87997
H         -0.10290        4.35066       -1.63271
H          0.62926        5.04346       -0.14621
H          1.66359        4.19250       -1.33931
H          4.61426       -2.13317       -0.00103
H          3.19928       -2.42168       -1.04678
H          3.85123       -0.02615       -1.05298
H          2.22907       -0.27814       -0.42016
H          4.56127        0.48223        1.13282
H          3.01019        1.02056        1.21372
H          3.10810       -3.40752        1.26952
H          2.93572       -1.85359        1.79858
C          3.53899       -1.94169       -0.12507
C          3.28660       -0.43835       -0.20562
N          2.77309       -2.48457        1.01074
N          3.59011        0.19802        1.07548
N         -3.24038       -0.42557        0.38130
C         -4.50920       -1.16949        0.54231
H         -4.81041       -1.56654       -0.42762
H         -4.34536       -1.99683        1.23334
H         -5.27859       -0.49925        0.93267
C         -2.69509        0.03809        1.68270
H         -2.48660       -0.83641        2.30013
H         -1.77419        0.58782        1.49486
H         -3.43277        0.68284        2.16674
C         -3.36650        0.68819       -0.58964
H         -2.40055        1.18482       -0.67018
H         -3.66435        0.27452       -1.55378
H         -4.11607        1.39662       -0.22880
H         -2.55518       -1.12490       -0.04062
