38
1sa1msa1dma1eda_192.log	Energy: -1060549.7098733
S          0.02991       -1.53586       -0.77169
O          0.03099       -0.82608        0.55559
O          1.13036       -2.47886       -0.90527
O         -1.32659       -2.03712       -1.05929
O          0.22784       -0.37561       -1.86993
H          1.05766        0.11050       -1.65674
S          3.11760        0.65859        0.35253
O          4.05724        1.62819        0.86977
O          2.35227        1.00148       -0.85605
O          2.09828        0.31272        1.50938
H          1.28497       -0.17676        1.13592
C          3.93971       -0.88899        0.05131
H          4.66789       -0.71436       -0.74180
H          4.43784       -1.18812        0.97342
H          3.19198       -1.62355       -0.25946
N         -2.84784       -0.80663        0.88154
C         -4.26096       -0.53552        0.55787
C         -2.64035       -1.67224        2.05920
H         -2.36504       -1.25396        0.07012
H         -4.76925       -0.16431        1.45011
H         -4.29816        0.23561       -0.21320
H         -4.74388       -1.45077        0.21194
H         -3.06414       -1.18935        2.94209
H         -3.12688       -2.63527        1.89502
H         -1.56711       -1.81450        2.18298
H         -2.35371        0.12806        1.03422
H         -0.91193        3.28780        0.00805
H         -0.16568        1.69057       -0.10699
H         -1.40826        2.22719       -2.14253
H         -2.06783        0.80680       -1.35630
H         -3.23813        3.49762       -1.14686
H         -3.87381        2.22309       -1.92623
H         -1.16099        1.85751        1.99478
H         -2.60465        2.34211        1.38146
C         -1.12236        2.20843       -0.02559
C         -1.96094        1.89117       -1.25446
N         -1.79280        1.75593        1.20613
N         -3.29859        2.48294       -1.13152
