38
1sa1msa1dma1eda_212.log	Energy: -1060547.2479090
S         -1.36803        1.87687        0.21707
O         -1.73014        1.44906       -1.14136
O         -2.35711        1.57328        1.24587
O          0.00934        1.45705        0.61709
O         -1.19087        3.49256        0.14934
H         -1.98453        3.86196       -0.26119
S          2.79696        0.00204       -0.38740
O          2.41380       -1.16169       -1.18353
O          2.68735       -0.14660        1.06768
O          2.02196        1.27852       -0.85311
H          1.15736        1.41857       -0.29260
C          4.45738        0.46306       -0.80795
H          5.09950       -0.37679       -0.54121
H          4.49649        0.65334       -1.88033
H          4.72114        1.35400       -0.23911
N          0.08013       -1.32405        1.54614
C         -0.98125       -1.10880        2.55082
C          0.77480       -2.62120        1.66091
H         -0.31574       -1.26621        0.53217
H         -0.54435       -1.13721        3.55110
H         -1.45285       -0.14211        2.36701
H         -1.72349       -1.90366        2.45350
H          1.26613       -2.69717        2.63230
H          0.04070       -3.42228        1.55326
H          1.51856       -2.68494        0.86626
H          0.77597       -0.56978        1.59844
H         -1.80177       -2.55825       -2.47063
H         -1.29169       -3.37213       -0.97710
H         -3.65570       -2.99492       -0.87031
H         -2.87763       -1.93509        0.31463
H         -4.62824       -0.89901       -1.14409
H         -3.20235       -0.11605       -1.28110
H          0.21444       -1.56673       -1.52642
H         -0.99298       -0.47161       -1.42321
C         -1.66619       -2.42715       -1.38976
C         -3.02051       -2.10837       -0.76801
N         -0.68147       -1.38147       -1.07827
N         -3.67032       -1.00294       -1.45758
