33
1sa1msa1ma1dma_134.log	Energy: -1001151.0264507
S         -1.65859       -1.55757        0.07968
O         -1.32742       -1.83635       -1.31243
O         -0.47053       -1.58273        0.98356
O         -2.49869       -0.36876        0.31251
O         -2.61957       -2.75128        0.61260
H         -2.18514       -3.59318        0.41983
S          2.45757       -0.18484       -0.15012
O          2.76286        0.56098        1.06987
O          1.58757        0.48869       -1.11199
O          1.91823       -1.61731        0.18239
H          0.92887       -1.61077        0.47186
C          3.97910       -0.63677       -0.94603
H          4.48739        0.29219       -1.20572
H          4.57525       -1.22012       -0.24483
H          3.74114       -1.21418       -1.83878
N          0.37079        2.45878        1.30058
H          1.30128        2.08119        1.12224
C         -0.25522        1.66800        2.37417
H          0.31298        1.68694        3.31078
H         -1.26335        2.04609        2.56946
H         -0.34586        0.62891        2.04859
H          0.49665        3.42090        1.59991
N         -1.44953        1.90528       -0.73080
C         -1.07385        1.64275       -2.13653
C         -2.43004        2.99272       -0.55976
H         -1.85486        1.02819       -0.32860
H         -0.58498        2.52690       -2.54962
H         -0.38901        0.79697       -2.15789
H         -1.97559        1.40895       -2.70524
H         -2.02334        3.91744       -0.97389
H         -3.35771        2.73414       -1.07264
H         -2.62752        3.12348        0.50484
H         -0.60824        2.13022       -0.11483
