24
1sa1msa2a_49.log	Energy: -927173.4272818
S         -1.21490       -0.87088        0.26540
O         -0.85711       -0.17338       -1.02654
O         -0.84784       -0.02806        1.41418
O         -2.60999       -1.32537        0.24559
O         -0.34592       -2.19693        0.30988
H          0.60492       -1.94857        0.20172
S          2.53703        0.21842       -0.19447
O          3.85363        0.54224       -0.69317
O          2.14432       -1.19293       -0.09372
O          1.47828        0.97696       -1.09697
H          0.58019        0.51728       -1.07985
C          2.30834        0.95961        1.40572
H          3.02446        0.48827        2.08004
H          2.51160        2.02646        1.31297
H          1.28162        0.76650        1.72394
N         -3.42935        0.67582       -1.40519
H         -3.61924       -0.22509       -0.93521
H         -3.32833        1.40293       -0.61787
H         -2.48273        0.54150       -1.79438
H         -4.12066        0.91759       -2.10764
N         -2.84028        2.22522        0.80431
H         -2.39654        3.12895        0.67054
H         -2.13422        1.59372        1.19846
H         -3.56069        2.34470        1.51028
