32
1sa1msa1a1eda_154.log	Energy: -1011230.3499384
S         -0.19303        2.12661       -0.06842
O          0.96214        2.17517        0.83620
O          0.01537        1.32438       -1.28354
O         -1.46066        1.80325        0.63622
O         -0.41231        3.62129       -0.65536
H         -0.63015        4.20682        0.08281
S         -2.14602       -1.57771       -0.10205
O         -2.99814       -2.71593        0.16838
O         -0.72443       -1.80747       -0.35372
O         -2.29907       -0.59106        1.13729
H         -1.94118        0.33110        0.94015
C         -2.79472       -0.62827       -1.46091
H         -2.77435       -1.28150       -2.33429
H         -3.81750       -0.33927       -1.22007
H         -2.14996        0.23969       -1.61397
N          0.83927       -0.48994        2.29326
H          0.81387        0.52945        2.31476
H          1.26903       -0.82096        3.15027
H         -0.12372       -0.81934        2.28416
H          3.23737        0.24042       -1.49048
H          2.97958        0.91165        0.12851
H          5.11008       -0.41267        0.04374
H          3.94507       -1.15991        1.14025
H          4.58049       -2.10850       -1.55662
H          4.56484       -2.94967       -0.15349
H          1.01611       -0.17900       -0.85237
H          1.82592       -1.65100       -0.73432
C          3.05765       -0.01549       -0.44248
C          4.14701       -0.93875        0.08701
N          1.75358       -0.70449       -0.35465
N          4.11613       -2.19585       -0.65893
H          1.43362       -0.76971        0.65544
