40
1sa1msa2eda_247.log	Energy: -1095276.8282458
S         -0.34131       -1.39466       -0.24014
O         -0.48175       -0.81914       -1.58026
O          0.27098       -0.41791        0.72506
O         -1.59661       -1.95710        0.29174
O          0.65690       -2.63382       -0.29986
H         -2.80033       -1.10079       -0.85798
H          1.55754       -2.29990       -0.52652
S          3.57556       -0.22416       -0.04017
O          4.71812        0.45591       -0.60348
O          3.08460       -1.44606       -0.68588
O          2.38893        0.81880        0.05297
H          1.51351        0.34130        0.27331
C          3.89046       -0.61474        1.66868
H          4.69277       -1.35307        1.68873
H          4.19220        0.30023        2.17804
H          2.97627       -1.02596        2.09945
H         -0.35382        1.89942       -1.43209
H         -1.74996        2.95736       -1.66769
H          0.16890        4.31430       -1.02433
H         -1.06043        4.38667        0.22723
H          0.27885        2.85559        1.52808
H          1.43299        2.82887        0.36092
H         -1.18750        1.17780        0.60198
H         -2.41763        2.26120        0.63157
C         -1.05934        2.55737       -0.91407
C         -0.32137        3.72320       -0.24269
N         -1.82712        1.71167        0.01138
N          0.67570        3.37821        0.75505
H         -4.46362       -1.95947        0.77866
H         -5.65535       -0.76862        1.30808
H         -5.35619       -0.81408       -1.16455
H         -5.02776        0.78513       -0.45181
H         -3.32096       -0.14319       -2.11038
H         -2.71401        0.58247       -0.67225
H         -3.95317       -0.28108        2.71135
H         -2.77624       -0.68011        1.65000
C         -4.65433       -0.88140        0.88131
C         -4.68551       -0.25153       -0.50960
N         -3.67863       -0.21503        1.73880
N         -3.32321       -0.24140       -1.09794
