39
1sa1msa1dma1tma_109.log	Energy: -1050466.5576241
S         -0.98300        1.94606        0.38052
O         -0.06582        1.99295       -0.78988
O         -2.37987        1.75875       -0.00798
O         -0.48338        1.05975        1.44320
O         -0.89027        3.40775        1.08413
H         -1.37026        4.03440        0.52581
S          2.60226       -0.20644       -0.46356
O          1.90876       -0.89659       -1.54473
O          2.35347       -0.70737        0.88919
O          2.36802        1.34200       -0.54116
H          1.37433        1.59794       -0.61768
C          4.35377       -0.23109       -0.76075
H          4.66795       -1.27441       -0.71968
H          4.53982        0.19226       -1.74720
H          4.84429        0.35193        0.01824
N         -2.33996       -0.89693       -1.53733
C         -3.61379       -1.48101       -1.92421
C         -1.37979       -0.87196       -2.63454
H         -2.48936        0.05386       -1.20438
H         -3.47873       -2.54553       -2.15109
H         -4.32901       -1.39978       -1.09949
H         -4.06281       -1.00523       -2.81280
H         -1.10988       -1.89879       -2.91060
H         -1.77143       -0.37330       -3.53679
H         -0.46895       -0.36015       -2.31827
N         -0.60778       -1.62353        1.55702
C          0.14804       -1.85045        2.81299
H          1.21166       -1.79810        2.58541
H         -0.11415       -1.06254        3.51941
H         -0.12165       -2.82911        3.21627
C         -2.07507       -1.57789        1.78827
H         -2.29206       -0.76198        2.47712
H         -2.55207       -1.39124        0.82522
H         -2.39599       -2.53525        2.20526
C         -0.25750       -2.60492        0.49718
H         -0.82781       -2.33753       -0.39466
H          0.81089       -2.53557        0.30187
H         -0.52790       -3.60324        0.85029
H         -0.35217       -0.66328        1.24287
