28
1sa1msa1eda_26.log	Energy: -975732.8784707
S         -1.81185       -1.40545        0.01089
O         -1.30896       -0.92717        1.29758
O         -2.23311       -0.32830       -0.91749
O         -0.91790       -2.39093       -0.64011
O         -3.17458       -2.19612        0.37899
H         -3.61739       -2.44130       -0.44516
S         -0.03818        2.32088       -0.04326
O          0.45407        3.65312       -0.31352
O          0.95665        1.24404        0.09138
O         -1.05159        1.95487       -1.19198
H         -1.46673        1.03899       -1.08437
C         -1.03824        2.31873        1.42628
H         -0.38663        2.60864        2.25166
H         -1.83330        3.05146        1.28843
H         -1.42981        1.30965        1.57706
H          2.65293       -2.28640       -1.30568
H          1.99031       -0.67646       -1.67074
H          4.45817       -0.55856       -1.16752
H          3.48206        0.36696       -0.02135
H          4.76652       -2.20985        0.50799
H          4.75056       -0.85655        1.42550
H          0.65727       -2.00846       -0.05234
H          1.98630       -1.83328        1.02012
C          2.45582       -1.29083       -0.89940
C          3.72560       -0.64578       -0.35561
N          1.49057       -1.43852        0.21488
N          4.19640       -1.42106        0.79350
H          1.12572       -0.50348        0.46938
