38
1sa1msa1dma1eda_127.log	Energy: -1060552.4747867
S          0.01510       -1.79209       -0.45826
O          0.49271       -0.97685       -1.57750
O         -0.09882       -0.97275        0.80578
O         -1.25203       -2.51371       -0.69763
O          1.07573       -2.91626       -0.15611
H          1.99462       -2.49654        0.02314
S         -0.59154        2.35377       -0.04803
O         -0.59612        3.71544        0.44052
O         -1.89325        1.68696       -0.24114
O          0.27034        1.48982        0.95059
H          0.12840        0.47012        0.83366
C          0.30567        2.25191       -1.57508
H         -0.21783        2.88072       -2.29624
H          1.31898        2.61517       -1.38629
H          0.31701        1.20396       -1.88467
N         -3.06585       -0.74819        0.28022
C         -4.34985       -0.70801       -0.44700
C         -3.18532       -0.95246        1.73980
H         -2.44884       -1.50102       -0.11750
H         -4.95939        0.11058       -0.06164
H         -4.14595       -0.54711       -1.50538
H         -4.86893       -1.65800       -0.31213
H         -3.73599       -0.11812        2.17683
H         -3.70888       -1.89099        1.92753
H         -2.17656       -1.00094        2.14960
H         -2.55360        0.14109        0.11132
H          2.36832        0.18718       -0.78067
H          4.11090        0.32835       -0.94401
H          4.38272       -0.28250        1.47352
H          2.62086       -0.42302        1.62380
H          4.13682       -2.03188       -0.31278
H          3.77010       -2.55136        1.18832
H          2.44734        2.00515        0.80024
H          4.07257        2.16278        0.58872
C          3.28052        0.44902       -0.23564
C          3.46017       -0.52936        0.92838
N          3.21313        1.85003        0.15068
N          3.46910       -1.92443        0.44713
