38
1sa1msa1dma1eda_134.log	Energy: -1060549.9768472
S          1.04137        0.98870       -0.67587
O          1.71196        0.17374       -1.68621
O          0.34002        0.14305        0.36833
O          2.12942        1.79419        0.12482
O          0.09302        2.00356       -1.18593
H          3.03403        1.25633        0.14709
H         -1.27012        1.92546       -0.27839
S         -2.48120       -1.49233       -0.00326
O         -2.95535       -0.91351       -1.25396
O         -2.72383       -0.67409        1.19989
O         -0.97696       -1.88941       -0.07784
H         -0.35567       -1.03884        0.05564
C         -3.21945       -3.08789        0.23319
H         -2.97415       -3.70402       -0.63172
H         -2.82419       -3.52058        1.15146
H         -4.29629       -2.93369        0.30514
N         -2.05321        1.97598        0.42679
C         -3.30075        2.38839       -0.24843
C         -1.60118        2.86837        1.51387
H         -2.18110        1.01869        0.80010
H         -3.14487        3.35727       -0.72480
H         -3.54399        1.63406       -0.99720
H         -4.10457        2.45512        0.48663
H         -1.42046        3.86255        1.10353
H         -2.36520        2.91286        2.29167
H         -0.67233        2.46509        1.91770
H          5.40331       -1.13618        1.05300
H          4.35193       -0.16418        2.11356
H          3.45233       -2.44188        1.60721
H          2.34862       -1.14434        1.13979
H          3.07021       -3.10284       -0.51068
H          2.71545       -1.60328       -1.06593
H          5.15105        1.08557        0.18823
H          4.39302        0.03398       -0.81120
C          4.43978       -0.61503        1.11955
C          3.30970       -1.61873        0.89960
N          4.35429        0.45976        0.11541
N          3.34970       -2.13145       -0.46995
