33
1sa1msa1a1tma_16.log	Energy: -1001159.4380834
S          1.21980        1.49060       -0.40359
O          2.50719        1.18834       -1.01641
O          0.08064        1.53753       -1.38552
O          0.85694        0.55640        0.70937
O          1.30541        2.92135        0.22629
H          1.39095       -0.89613        0.55420
H          0.40680        3.09536        0.72240
S         -2.23253       -0.65158       -0.00962
O         -2.46256        0.52865        0.82129
O         -1.54726       -1.79280        0.60011
O         -1.54604       -0.27466       -1.35436
H         -0.83135        0.53875       -1.31547
C         -3.80862       -1.22636       -0.60409
H         -4.37273       -1.57014        0.26339
H         -4.31485       -0.39395       -1.09205
H         -3.63774       -2.04457       -1.30325
N         -1.00644        3.13359        1.43671
H         -0.95067        3.29472        2.43712
H         -1.41895        2.20788        1.29286
H         -1.64623        3.81651        1.04385
N          1.84102       -1.84111        0.34250
C          1.39420       -2.20025       -1.02701
H          0.30641       -2.26989       -1.02408
H          1.71307       -1.41108       -1.70964
H          1.84467       -3.15426       -1.31198
C          3.30694       -1.62282        0.40058
H          3.55982       -0.81613       -0.28906
H          3.57479       -1.32526        1.41494
H          3.81983       -2.54980        0.13269
C          1.37136       -2.81562        1.35412
H          1.66679       -2.46083        2.34224
H          0.28482       -2.87251        1.29541
H          1.82811       -3.78856        1.15556
