28
1sa1msa1eda_122.log	Energy: -975726.7780181
S         -2.68623        0.12301       -0.12886
O         -3.64244        0.91636       -0.85787
O         -2.15528        0.61637        1.13634
O         -3.36441       -1.27898        0.27735
O         -1.54284       -0.27458       -1.08810
H         -3.92476       -1.57424       -0.45496
H         -0.79367       -0.92626       -0.68498
S          1.60396       -1.38268       -0.00641
O          2.11802       -0.53926       -1.09247
O          0.16835       -1.79097       -0.20976
O          1.79781       -0.79103        1.34968
H          0.97853        0.60970        1.61844
C          2.50194       -2.91695       -0.00354
H          2.36676       -3.38579       -0.97810
H          3.55268       -2.68703        0.17318
H          2.10243       -3.54688        0.79083
H          2.80202        1.57077        0.55103
H          2.51934        3.31922        0.69983
H          0.16795        3.06774        0.13524
H          0.44890        1.45458       -0.53750
H          0.63921        2.11083        2.33796
H         -0.57505        1.24829        1.55915
H          3.47523        3.06903       -1.39291
H          2.54634        1.77229       -1.77264
C          2.25654        2.42454        0.12268
C          0.75856        2.15625        0.23942
N          2.55436        2.66249       -1.28020
N          0.42768        1.50981        1.54406
