28
1sa1msa1eda_139.log	Energy: -975726.1037090
S         -2.22664       -0.61796       -0.22201
O         -3.66226       -0.72016       -0.25546
O         -1.47135       -1.77675       -0.76293
O         -1.66889        0.66692       -0.75957
O         -1.83512       -0.56351        1.36665
H         -1.10907        1.58071        0.32823
H         -0.88604       -0.78090        1.44537
S          1.77751       -1.24992        0.22982
O          2.24805       -2.40031        0.97159
O          0.94468       -0.28074        0.98825
O          1.01086       -1.64667       -1.07140
H         -0.02002       -1.71210       -0.94884
C          3.15003       -0.37892       -0.47930
H          3.77405       -0.03556        0.34688
H          3.70030       -1.08805       -1.09815
H          2.76289        0.45022       -1.07796
H          1.99137        2.25023        0.36611
H          1.89329        3.72322       -0.58381
H          0.47818        3.91885        1.38980
H         -0.57493        3.87542       -0.04513
H          0.06847        1.43525        1.48725
H         -1.27030        2.36916        1.81777
H          0.38914        1.28264       -1.30085
H          0.64211        2.61694       -2.21389
C          1.32944        2.83372       -0.28718
C          0.13681        3.30206        0.55374
N          1.03468        2.05147       -1.47035
N         -0.58882        2.12407        1.10201
