40
1sa1msa2eda_148.log	Energy: -1095289.4224612
S          1.80641       -1.35763       -0.85650
O          1.22188       -0.02459       -1.53758
O          1.35707       -2.50759       -1.63052
O          3.26329       -1.07984       -0.84706
O          1.27334       -1.36875        0.54331
H          3.45564       -0.11877        0.43484
H         -0.23708       -2.20310        0.46266
S         -2.22661        0.99490       -0.84386
O         -1.33321        1.98866       -0.22062
O         -3.31454        0.49541        0.01374
O         -1.43891       -0.15590       -1.44063
H          0.22553       -0.04366       -1.54849
C         -2.98625        1.79188       -2.24722
H         -3.56476        2.63754       -1.87459
H         -2.19822        2.12985       -2.92034
H         -3.63445        1.06848       -2.74172
H          3.91022        2.51044        1.77854
H          4.41452        2.00574        0.14451
H          2.37654        3.54046        0.12753
H          2.06378        1.95844       -0.60675
H          1.06543        2.87959        1.95197
H          0.34236        1.95411        0.80707
H          4.04613        0.20567        1.98911
H          2.42568        0.48484        1.62522
C          3.61477        1.95353        0.88508
C          2.27881        2.46824        0.33616
N          3.40349        0.53461        1.27390
N          1.22595        2.13139        1.28712
H         -1.10988       -0.21146        1.57003
H         -0.85081       -1.30625        2.92328
H         -2.20453       -3.01948        1.96618
H         -3.12682       -1.84651        0.99400
H         -1.37256       -3.23426       -0.22779
H         -1.41400       -1.57830       -0.50351
H         -2.38906        0.24370        3.70397
H         -3.29365        0.17466        2.34016
C         -1.61069       -0.93681        2.22673
C         -2.13946       -2.09908        1.38297
N         -2.72437       -0.37856        2.97784
N         -1.24526       -2.32657        0.21293
