32
1sa1msa1a1eda_299.log	Energy: -1011223.5982502
S         -0.60470        1.59932        0.22315
O         -0.69839        1.07604        1.58556
O         -0.36162        0.50520       -0.77917
O         -1.75585        2.41385       -0.21249
O          0.64387        2.58616        0.13619
H          1.45201        2.08037        0.38344
S          2.80603       -0.50229       -0.07288
O          2.57304       -1.64123        0.80156
O          2.74852        0.83651        0.52613
O          1.85854       -0.55424       -1.32700
H          0.94517       -0.13180       -1.10771
C          4.37927       -0.69825       -0.87031
H          5.13442       -0.67924       -0.08419
H          4.38318       -1.65849       -1.38545
H          4.52028        0.12672       -1.56760
N         -0.52024       -1.99792        1.53722
H         -0.67590       -2.47947        2.41746
H         -0.55388       -0.99626        1.73334
H          0.44576       -2.18527        1.27314
H         -2.89778       -0.08728        0.93181
H         -4.61432        0.07361        0.50500
H         -3.84116       -2.33777        0.93610
H         -4.57017       -2.11177       -0.66060
H         -1.69984       -2.25863       -0.06078
H         -2.56679       -3.15136       -1.16129
H         -2.79747        1.25095       -0.89617
H         -2.48631       -0.31753       -1.45522
C         -3.65680       -0.34219        0.18843
C         -3.70234       -1.85450       -0.04078
N         -3.22738        0.31003       -1.08145
N         -2.48141       -2.23698       -0.73489
H         -3.98086        0.37621       -1.76209
