24
1sa1msa2a_63.log	Energy: -927165.4826605
S          2.23949        0.68877        0.08238
O          1.38360        1.69691       -0.50298
O          3.60855        0.98715        0.44297
O          1.56997        0.11910        1.40458
O          2.20575       -0.55082       -0.89570
H          0.61163       -0.07328        1.23714
H          2.94371       -1.20852       -0.61248
S         -1.96590       -0.02943       -0.10825
O         -0.95796       -0.54089        0.82446
O         -2.70179        1.17049        0.27406
O         -2.99121       -1.19114       -0.39970
H         -3.93062       -0.93905       -0.02977
C         -1.20319        0.19595       -1.69150
H         -0.43503        0.96266       -1.56825
H         -0.74645       -0.74961       -1.98368
H         -1.97308        0.50420       -2.39811
N          4.21164       -2.01174        0.00406
H          3.96205       -2.62381        0.77437
H          4.75815       -1.24016        0.38157
H          4.79336       -2.53358       -0.64271
N         -5.27435       -0.38022        0.57455
H         -5.54610       -0.81131        1.45252
H         -6.08051       -0.38102       -0.04187
H         -5.01177        0.58577        0.76239
