32
1sa1msa1a1eda_74.log	Energy: -1011239.7545546
S          2.92406       -0.42753       -0.18816
O          2.39677        0.56137        0.76110
O          2.55046       -1.81406        0.17813
O          2.64745       -0.10654       -1.60185
O          4.53294       -0.32292       -0.00927
H          4.94762       -0.87537       -0.68593
S         -2.81121       -0.50042       -0.20878
O         -2.58048        0.49639       -1.29038
O         -3.09290        0.10105        1.10914
O         -1.68772       -1.49299       -0.15529
C         -4.25643       -1.42739       -0.68585
H         -5.09088       -0.72954       -0.75774
H         -4.06051       -1.89809       -1.64907
H         -4.44706       -2.17753        0.08174
N          0.25978       -1.39130        1.66938
H          0.30767       -0.36398        1.77931
H          1.14089       -1.70714        1.20016
H          0.14294       -1.84134        2.57211
H         -0.56933       -1.57131        1.04028
H          1.26727        2.52084       -0.24796
H          0.03732        3.10010       -1.41128
H         -0.66683        3.60807        0.92807
H         -1.77464        2.46877        0.15006
H          0.00012        1.93980        2.34827
H         -1.46450        1.26289        1.93667
H          0.91409        0.72612       -1.69437
H          0.15430        0.41608       -0.28118
C          0.23881        2.40502       -0.59414
C         -0.76200        2.58558        0.54544
N          0.11609        1.01793       -1.10802
N         -0.55864        1.56999        1.58739
H         -0.81906        0.83472       -1.52455
