39
1sa1msa1dma1tma_95.log	Energy: -1050470.2005927
S          0.02708       -0.10235        0.98227
O          0.39566       -1.09042       -0.08139
O          0.23719        1.28052        0.53933
O         -1.33065       -0.37648        1.49890
O          0.97123       -0.39165        2.22817
H          1.90830       -0.33023        1.91998
S          3.70476        0.03977       -0.37424
O          5.03611       -0.23113       -0.86627
O          3.40293       -0.23787        1.03586
O          2.68557       -0.76368       -1.28218
H          1.80154       -0.89765       -0.81528
C          3.28393        1.73769       -0.69372
H          3.95841        2.35020       -0.09398
H          3.43385        1.92583       -1.75670
H          2.24495        1.89307       -0.39430
N         -2.80829        1.79096       -0.28038
C         -3.51043        2.05324        0.96972
C         -3.09717        2.78837       -1.30061
H         -1.80786        1.78846       -0.08727
H         -4.59144        1.93483        0.82051
H         -3.17671        1.33512        1.72220
H         -3.33874        3.06978        1.35955
H         -4.15418        2.72831       -1.58673
H         -2.89887        3.82207       -0.97219
H         -2.49469        2.59346       -2.19307
N         -2.76497       -1.48726       -0.48027
C         -2.36930       -2.88085       -0.15554
H         -1.28552       -2.95351       -0.25039
H         -2.65521       -3.09344        0.87464
H         -2.87124       -3.56678       -0.84137
C         -4.21073       -1.24152       -0.27358
H         -4.45807       -1.46105        0.76573
H         -4.39787       -0.18829       -0.48313
H         -4.78710       -1.88532       -0.94188
C         -2.32809       -1.09423       -1.84393
H         -2.58129       -0.04299       -1.97872
H         -1.24800       -1.22727       -1.90478
H         -2.84171       -1.72349       -2.57465
H         -2.24882       -0.88634        0.21432
