33
1sa1msa1ma1dma_68.log	Energy: -1001153.8871346
S          1.46455        0.24752       -0.77441
O          1.51395        1.26796        0.31169
O          1.13571       -1.10470       -0.18947
O          0.58627        0.62870       -1.87270
O          2.92331        0.09422       -1.34220
H          3.47764       -0.48046       -0.68568
S         -2.33327       -1.15291        0.08122
O         -2.88225       -0.51112       -1.10278
O         -1.99769       -0.24375        1.19762
O         -1.12515       -2.07176       -0.23944
H         -0.16953       -1.59563       -0.24474
C         -3.48939       -2.35717        0.68692
H         -4.41141       -1.82618        0.92471
H         -3.65999       -3.08896       -0.10257
H         -3.06768       -2.82743        1.57439
N          4.08298       -1.41756        0.45802
H          3.34345       -2.11399        0.51188
C          4.16863       -0.66540        1.71749
H          4.39335       -1.29739        2.58458
H          4.94467        0.09767        1.62510
H          3.21642       -0.15623        1.88030
H          4.95239       -1.89836        0.25211
N         -0.99672        2.24322        0.46936
C         -1.55880        2.70001       -0.82251
C         -1.12205        3.21219        1.57443
H         -1.45308        1.34950        0.74181
H         -1.03837        3.60727       -1.13253
H         -1.39864        1.91282       -1.55843
H         -2.62488        2.89561       -0.69710
H         -0.59727        4.13091        1.30836
H         -2.17702        3.42636        1.75341
H         -0.67498        2.78073        2.47010
H          0.01712        1.97619        0.35397
