42
1sa1msa2tma_50.log	Energy: -1075127.0001066
S          0.29393        2.08290       -0.82642
O          0.65598        2.19505        0.58582
O          1.19554        1.26113       -1.65622
O         -1.13589        1.74190       -1.03489
O          0.47285        3.59303       -1.39513
H          0.47787        3.55200       -2.36112
S          2.63933       -1.17634        0.48296
O          3.52083       -2.30762        0.67819
O          1.24929       -1.26527        0.92539
O          2.67357       -0.83852       -1.06874
H          2.06334       -0.07981       -1.28708
C          3.35220        0.27843        1.22098
H          3.42719        0.08882        2.29263
H          4.34119        0.42771        0.78803
H          2.68877        1.12382        1.02365
N         -2.22442        0.86344        1.26350
C         -2.34467        2.17453        1.94609
H         -1.34573        2.60136        2.04076
H         -2.96489        2.83140        1.33539
H         -2.80162        2.02638        2.92708
C         -3.54089        0.24102        0.98424
H         -4.12497        0.91620        0.35733
H         -3.34934       -0.70276        0.46534
H         -4.05829        0.06656        1.93075
C         -1.32865       -0.06369        2.00358
H         -1.25596       -0.99205        1.43937
H         -0.34221        0.39153        2.07527
H         -1.75613       -0.24458        2.99288
H         -1.77486        1.07404        0.33607
N         -2.06636       -2.23571       -0.68839
C         -3.25704       -2.65791       -1.40752
H         -3.96161       -3.13661       -0.71897
H         -3.74799       -1.78852       -1.85769
H         -3.02779       -3.37551       -2.21705
C         -1.14204       -1.54000       -1.57792
H         -1.61414       -0.64348       -1.98766
H         -0.25833       -1.23183       -1.01599
H         -0.81182       -2.18152       -2.41527
C         -1.41225       -3.37296       -0.05283
H         -0.51331       -3.03703        0.47129
H         -2.09318       -3.83805        0.66778
H         -1.11023       -4.14103       -0.78819
