41
1sa1msa1tma1eda_137.log	Energy: -1085208.9957743
S          0.23299       -1.59404       -0.36874
O         -0.68005       -2.58955       -0.92896
O          0.77293       -0.63630       -1.38225
O         -0.38621       -0.85277        0.77446
O          1.48538       -2.33854        0.22643
H          2.38877       -1.96017       -0.17444
S         -0.50346        2.55553       -0.29215
O         -1.76588        1.81568       -0.34063
O         -0.51635        3.97964       -0.55322
O          0.52996        1.91005       -1.29483
H          0.51831        0.89471       -1.30073
C          0.23724        2.25464        1.29897
H         -0.42352        2.69242        2.04869
H          0.31938        1.17255        1.42839
H          1.21086        2.74518        1.31550
H          2.67476        0.98125        0.17111
H          4.06705        1.40302        1.17288
H          4.97931        0.30873       -0.69350
H          5.03516       -0.87969        0.62780
H          3.07710       -0.81813       -1.56789
H          4.20210       -1.97396       -1.26755
H          2.53783        0.48550        2.64741
H          2.25858       -0.84399        1.73792
C          3.46355        0.56098        0.81784
C          4.36843       -0.32240       -0.03544
N          2.96174       -0.15402        1.98592
N          3.58900       -1.29533       -0.82606
N         -3.05824       -0.92897        0.38186
C         -3.30280       -2.32571        0.82298
H         -2.66811       -2.98208        0.22735
H         -3.03215       -2.41386        1.87560
H         -4.36030       -2.56174        0.68362
C         -3.79373        0.05404        1.21250
H         -3.50927       -0.08719        2.25604
H         -3.51890        1.05537        0.88331
H         -4.86681       -0.11358        1.09451
C         -3.35073       -0.75900       -1.06743
H         -3.08642        0.25938       -1.34969
H         -2.73655       -1.47076       -1.61941
H         -4.41366       -0.94893       -1.23465
H         -2.02362       -0.76081        0.51534
