36
1sa1msa1ma1tma_12.log	Energy: -1025827.2375182
S         -1.59842        1.36313       -0.75816
O         -1.86595        0.01338       -1.30960
O         -0.29230        1.91328       -1.52610
O         -2.61933        2.36582       -0.97331
O         -1.16596        1.22286        0.67943
H          0.30886        1.79131        1.00789
S          2.13414       -0.82752       -0.38639
O          1.11189       -1.86952       -0.57809
O          2.37018       -0.49651        1.05310
O          1.89017        0.41260       -1.18027
H          0.40194        1.20844       -1.55416
C          3.67095       -1.49042       -1.00371
H          3.53299       -1.72095       -2.06024
H          4.44862       -0.73818       -0.87167
H          3.90467       -2.39273       -0.43820
N          1.33219        2.04145        1.12505
H          1.82254        1.13767        1.31293
C          1.54845        3.08029        2.14714
H          2.61364        3.29193        2.24261
H          1.01295        3.98546        1.86108
H          1.16245        2.71982        3.10044
H          1.64803        2.31852        0.19366
N         -1.76229       -1.84793        0.62589
C         -1.63844       -3.16783       -0.03960
H         -2.23291       -3.14999       -0.95360
H         -0.58946       -3.32489       -0.28592
H         -2.00594       -3.94249        0.63770
C         -0.89720       -1.74437        1.82735
H          0.13319       -1.93468        1.53153
H         -0.98676       -0.73055        2.21563
H         -1.23775       -2.47548        2.56511
C         -3.17364       -1.51775        0.94540
H         -3.20065       -0.51781        1.37866
H         -3.75058       -1.52247        0.02127
H         -3.56169       -2.25576        1.65128
H         -1.47516       -1.12639       -0.08057
