38
1sa1msa1dma1eda_79.log	Energy: -1060562.8704223
S         -2.36085       -1.11026        0.17001
O         -1.73551       -2.22573        0.91617
O         -2.94346       -0.07019        1.02604
O         -1.49856       -0.59694       -0.90921
O         -3.59983       -1.77417       -0.65636
H         -4.21241       -2.15798       -0.01462
S          2.86801        0.71923       -0.14779
O          3.45252       -0.47638       -0.77255
O          1.68725        0.33542        0.73339
O          2.48897        1.82158       -1.04867
C          4.08530        1.36647        0.98668
H          4.34107        0.58639        1.70371
H          4.96123        1.65296        0.40366
H          3.66212        2.23421        1.49268
N          0.92293       -2.24320        0.08982
C          1.85797       -3.05271        0.89650
C          1.01173       -2.49646       -1.36777
H         -0.05829       -2.37667        0.41184
H          2.87630       -2.80033        0.59696
H          1.70932       -2.81412        1.94972
H          1.66149       -4.11240        0.72601
H          2.00689       -2.20558       -1.70571
H          0.82632       -3.55586       -1.55360
H          0.24745       -1.89269       -1.85603
H          1.14317       -1.23942        0.27619
H         -1.50880        1.86883        1.47229
H         -0.42070        3.26893        1.30424
H         -2.82600        3.86266        0.96938
H         -1.85476        4.21667       -0.46457
H         -3.44043        1.75075       -0.18702
H         -3.76169        3.01381       -1.20782
H          0.37776        1.25931        0.19002
H         -0.99395        1.21880       -0.76396
C         -1.11633        2.61369        0.77620
C         -2.25897        3.40012        0.14639
N         -0.36050        1.85672       -0.25038
N         -3.03011        2.51941       -0.71384
H          0.13389        2.45234       -0.91651
