40
1sa1msa2eda_266.log	Energy: -1095274.7144739
S          0.58596       -1.35303        0.27120
O          0.68443       -0.21935       -0.65503
O         -0.38910       -2.38295       -0.15580
O          1.90159       -1.88071        0.68526
O          0.01699       -0.74787        1.66362
H          2.79268       -0.37390        0.95926
H         -0.95684       -0.62428        1.57601
S         -3.25906       -0.40918       -0.18050
O         -3.38462        0.89046       -0.81652
O         -2.62350       -0.46215        1.14272
O         -2.55012       -1.42185       -1.14778
H         -1.68023       -1.80866       -0.76813
C         -4.87364       -1.13486       -0.03627
H         -5.46840       -0.47798        0.59904
H         -5.30648       -1.20262       -1.03426
H         -4.76578       -2.12111        0.41406
H          5.56962       -0.49075        0.33049
H          5.71417        0.01891       -1.35081
H          4.40389        1.72165       -0.38739
H          3.18967        0.67201       -1.16721
H          3.88660        0.65011        1.69562
H          2.44671        1.30929        1.01576
H          5.08359       -2.30593       -1.25010
H          3.63783       -1.92303       -0.55604
C          5.00083       -0.35754       -0.61001
C          3.95237        0.72681       -0.38754
N          4.39810       -1.57016       -1.13332
N          3.24179        0.56639        0.91173
H          1.21822        3.91777       -0.24327
H          1.47753        2.38531       -1.08503
H         -0.66966        3.33790       -1.77009
H         -0.85576        1.78955       -0.95630
H         -1.64110        4.37986        0.09244
H         -2.39977        2.92700        0.15477
H          0.75403        2.83844        1.70941
H          0.45212        1.41643        1.01762
C          0.86255        2.88424       -0.32880
C         -0.59297        2.83813       -0.79259
N          1.07740        2.22150        0.96996
N         -1.49634        3.38427        0.21630
