23
1sa1msa1ma_68.log	Energy: -916315.5153399
S         -2.10505       -0.38727        0.06496
O         -2.93169        0.77178       -0.16664
O         -1.17140       -0.43977        1.17660
O         -3.08525       -1.63440        0.30204
O         -1.39194       -0.81739       -1.26100
H         -3.94406       -1.43151       -0.09572
H         -0.39526       -0.81578       -1.15784
S          2.14916       -0.29563       -0.10904
O          2.76756        0.88667       -0.67143
O          1.19965       -1.05834       -0.93359
O          1.46443        0.03766        1.28191
H          0.47510       -0.01209        1.20990
C          3.41948       -1.41101        0.42884
H          3.98881       -1.69495       -0.45676
H          4.05308       -0.88044        1.13944
H          2.94787       -2.27892        0.88784
N         -0.13039        1.97277       -0.63557
H          0.73271        2.14064       -1.14349
C         -0.22242        2.86505        0.52047
H         -0.18786        3.93507        0.27226
H         -1.15872        2.66646        1.04861
H          0.60228        2.64819        1.20491
H         -0.90018        2.14650       -1.27380
