24
1sa1msa2a_32.log	Energy: -927173.5473118
S         -1.75290        0.40955       -0.27926
O         -1.42747        1.53103       -1.17193
O         -1.03583       -0.85935       -0.63342
O         -1.54599        0.74627        1.15301
O         -3.28009        0.09093       -0.49261
H         -0.39038        2.05962        1.22339
H         -3.47527       -0.80904       -0.05318
S          2.35186       -0.39834        0.10260
O          2.06388       -1.00391        1.39057
O          2.38261        1.07821        0.06270
O          1.42125       -0.94220       -1.02498
H          0.39418       -0.87819       -0.82375
C          3.91829       -0.96648       -0.50950
H          4.67567       -0.62382        0.19591
H          3.89119       -2.05489       -0.55151
H          4.08150       -0.53602       -1.49687
N          0.24600        2.68557        0.67587
H          1.14011        2.17136        0.52115
H          0.38906        3.59127        1.11021
H         -0.24285        2.74857       -0.23165
N         -3.41700       -2.30364        0.65604
H         -3.34388       -2.23169        1.66583
H         -2.51814       -2.62421        0.30246
H         -4.12404       -2.99479        0.43149
