33
1sa1msa1ma1dma_44.log	Energy: -1001158.0149170
S          1.00077       -1.56545       -0.18967
O          2.17500       -2.31168        0.23939
O          0.35363       -0.79351        0.93302
O          1.48185       -0.45520       -1.22938
O         -0.03822       -2.33747       -0.90831
H          2.42978       -0.14065       -0.94415
H         -2.18637       -0.47062        0.15475
S         -0.97389        2.24965        0.03067
O         -1.34471        3.57651        0.46998
O         -2.03892        1.23849       -0.08956
O          0.14655        1.70912        0.98828
H          0.25055        0.68296        0.94315
C         -0.16388        2.34873       -1.54913
H         -0.91160        2.66370       -2.27772
H          0.62944        3.09227       -1.46908
H          0.24399        1.36381       -1.78609
N          3.83475        0.19479       -0.30028
H          4.22193       -0.73819       -0.17989
C          3.62550        0.82918        1.01097
H          4.55794        0.98932        1.56318
H          3.12310        1.78871        0.87211
H          2.96939        0.18961        1.60472
H          4.48418        0.72984       -0.86772
N         -2.38019       -1.48887        0.10767
C         -3.53823       -1.71623       -0.77794
C         -2.53290       -2.02566        1.47661
H         -1.50896       -1.89686       -0.32398
H         -4.42513       -1.25239       -0.34367
H         -3.32849       -1.26623       -1.74803
H         -3.69692       -2.78905       -0.89631
H         -3.38529       -1.54618        1.96068
H         -2.69098       -3.10370        1.42005
H         -1.61292       -1.81103        2.01991
