32
1sa1msa1a1eda_139.log	Energy: -1011229.8582157
S         -0.90132       -1.92932       -0.06728
O         -0.37450       -1.51238        1.23727
O         -2.02538       -1.12159       -0.54540
O          0.19059       -2.12162       -1.06671
O         -1.55556       -3.40097        0.10217
H         -0.84281       -4.03081        0.27561
S          2.33726        0.51468       -0.29657
O          2.61976        0.75633        1.11237
O          1.10735        1.11520       -0.83556
O          2.38241       -1.00610       -0.63355
H          1.44574       -1.44422       -0.78916
C          3.71319        1.10065       -1.25357
H          3.80818        2.17022       -1.06472
H          4.60526        0.57092       -0.91970
H          3.50990        0.90430       -2.30567
N          0.17361        0.77362        3.05328
H         -0.05687       -0.21745        3.08151
H          0.19101        1.13246        4.00141
H          1.11674        0.82871        2.66750
H         -2.74924        2.73199        1.15515
H         -1.21286        3.41619        0.55848
H         -2.96820        3.56551       -1.16301
H         -1.66844        2.49538       -1.69919
H         -4.14877        1.74858       -1.87910
H         -3.11011        0.63506       -1.27735
H         -0.84922        1.26242        1.70950
H         -1.85697        0.52196        0.56540
C         -1.94028        2.61031        0.43195
C         -2.50190        2.59178       -0.98517
N         -1.24914        1.33605        0.72939
N         -3.51532        1.55376       -1.11429
H         -0.43576        1.21179        0.10234
