30
1sa1msa2ma_03.log	Energy: -976509.3126661
S          2.17291        0.08293       -0.55193
O          1.56149       -0.16306        0.79840
O          2.05378        1.52117       -0.89221
O          3.46951       -0.52820       -0.74971
O          1.19051       -0.71151       -1.57087
H          0.29751       -0.28154       -1.56712
S         -2.22942        0.06480       -0.24255
O         -2.09728        1.05550        0.85939
O         -2.17958       -1.34452        0.23033
O         -1.27566        0.34235       -1.34824
C         -3.86173        0.28069       -0.92194
H         -4.58603        0.10841       -0.12571
H         -3.94056        1.29832       -1.30438
H         -3.99073       -0.44429       -1.72556
N          0.15766        2.60984        0.66987
H         -0.67819        1.97931        0.70931
H          0.84780        2.20851       -0.02336
C          0.79856        2.70787        2.00156
H          1.63091        3.40975        1.95091
H          0.06542        3.03887        2.73712
H          1.17273        1.71529        2.24993
H         -0.15429        3.51590        0.32825
N          0.26118       -2.48010        0.55398
H          0.82836       -1.62089        0.79852
H         -0.71740       -2.12595        0.41787
C          0.34724       -3.53842        1.57756
H         -0.23252       -4.40630        1.26298
H          1.39027       -3.81877        1.72384
H         -0.06057       -3.14965        2.51019
H          0.61291       -2.77352       -0.35783
