36
1sa1msa2dma_15.log	Energy: -1025830.6286861
S         -2.85649       -0.11792       -0.18349
O         -2.88863        0.82978       -1.29654
O         -2.62123       -1.52312       -0.58385
O         -1.98285        0.30031        0.93844
O         -4.32884       -0.09657        0.50762
H         -4.97972       -0.31963       -0.17161
S          2.80092        0.01879       -0.02653
O          2.98612       -1.32652        0.54198
O          2.96967        1.15213        0.89377
O          1.45799        0.10941       -0.73808
C          4.01589        0.20824       -1.32152
H          3.87451       -0.58816       -2.05233
H          3.88153        1.18584       -1.78466
H          5.00124        0.13500       -0.86038
N         -0.11347        2.15831        0.18984
C         -0.53855        3.01301       -0.93947
C          0.46115        2.89352        1.33650
H         -0.91916        1.57813        0.51058
H          0.33604        3.52097       -1.34875
H         -1.01048        2.37980       -1.69017
H         -1.26506        3.74439       -0.58259
H          1.34469        3.43916        1.00609
H         -0.29143        3.57773        1.73222
H          0.76621        2.17442        2.09469
H          0.57561        1.45067       -0.15940
N         -0.00267       -2.11461        0.06403
C          0.61276       -3.26890       -0.62318
C          0.05944       -2.19198        1.54270
H          0.49990       -1.25227       -0.24487
H          0.10587       -4.18446       -0.31439
H          0.50289       -3.13231       -1.69921
H          1.66986       -3.30180       -0.35640
H         -0.44124       -3.10463        1.87010
H          1.10825       -2.18954        1.84150
H         -0.46316       -1.32313        1.94292
H         -0.99636       -1.99679       -0.22698
