41
1sa1msa1tma1eda_42.log	Energy: -1085219.0548640
S          2.96293        0.26484        0.16243
O          1.69190       -0.21484       -0.40465
O          4.13500        0.18718       -0.69893
O          2.79597        1.56259        0.86194
O          3.21467       -0.84378        1.36102
H          4.12313       -0.73769        1.67160
S         -2.46724       -0.30184        0.52653
O         -1.70158       -0.43775       -0.75444
O         -2.07311        0.91869        1.27594
O         -2.44311       -1.54255        1.32138
C         -4.16659       -0.02808        0.04709
H         -4.21422        0.87072       -0.56846
H         -4.51055       -0.89655       -0.51509
H         -4.75424        0.09748        0.95671
H          0.91897        2.80793       -1.29329
H         -0.13049        1.37283       -1.22863
H         -1.34611        3.32158       -2.25090
H         -2.09231        2.79135       -0.73527
H         -0.42129        5.17609       -1.05951
H         -1.90985        5.05113       -0.38944
H          1.14992        1.98859        0.83986
H          0.04497        3.27076        0.97543
C          0.00322        2.39139       -0.86494
C         -1.20519        3.26733       -1.16356
N          0.18709        2.32514        0.60635
N         -1.02820        4.57006       -0.51766
H         -0.54505        1.70179        1.00728
N         -0.14724       -2.69611       -0.61270
C         -1.29481       -3.61568       -0.81187
H         -2.02002       -3.42745       -0.01966
H         -1.74640       -3.40853       -1.78263
H         -0.93266       -4.64571       -0.77717
C          0.85958       -2.82539       -1.69617
H          0.36280       -2.66576       -2.65412
H          1.62257       -2.06324       -1.54034
H          1.28780       -3.82969       -1.65974
C          0.45663       -2.87812        0.73622
H          1.27987       -2.17435        0.84483
H         -0.31736       -2.67282        1.47637
H          0.81439       -3.90732        0.81919
H         -0.55149       -1.72782       -0.65106
