24
1sa1msa2a_70.log	Energy: -927161.0397303
S         -1.83309       -0.23647       -0.15894
O         -2.26507       -1.44693        0.51611
O         -0.71900       -0.28812       -1.09280
O         -3.05570        0.35575       -0.97057
O         -1.54300        0.84245        0.92787
H         -3.91849        0.12845       -0.47442
H         -0.89350        1.60202        0.54780
S          2.83840       -0.18126        0.13592
O          2.63867        1.12849       -0.46293
O          2.40987       -0.42889        1.50067
O          4.43682       -0.48483        0.07762
H          4.73320       -0.66929        0.98051
C          2.22458       -1.42464       -0.96464
H          2.72594       -1.30046       -1.92447
H          2.43322       -2.40001       -0.52625
H          1.14898       -1.24850       -1.05935
N         -5.13843       -0.46344        0.46895
H         -5.93243       -0.86658       -0.01672
H         -5.48689        0.16576        1.18440
H         -4.62445       -1.21391        0.92691
N          0.04194        2.61743       -0.02585
H          0.20230        3.42744        0.56451
H         -0.30740        2.94285       -0.92247
H          0.94182        2.16231       -0.19366
