32
1sa1msa1a1eda_276.log	Energy: -1011225.6749615
S          0.32965        0.94021       -0.58289
O          0.00977       -0.46456       -0.96999
O          0.17457        1.15980        0.86242
O          1.65116        1.36202       -1.10053
O         -0.69264        1.87588       -1.36077
H         -1.60789        1.55490       -1.16926
S         -3.27135       -0.40745        0.23862
O         -4.57424       -1.03057        0.27072
O         -3.05458        0.73487       -0.65865
O         -2.20952       -1.53219       -0.10004
H         -1.35417       -1.13260       -0.44976
C         -2.81152        0.10307        1.87935
H         -3.52888        0.86491        2.18707
H         -2.87078       -0.76785        2.53206
H         -1.79929        0.51215        1.83623
N          2.52652       -1.82133       -2.10913
H          1.61122       -1.47319       -1.81949
H          2.38056       -2.71484       -2.56795
H          2.86017       -1.17392       -2.81679
H          3.85921        0.32459        2.62279
H          2.15457        0.70923        2.20205
H          2.80056       -1.81614        2.10194
H          2.01186       -1.15219        0.67489
H          4.69570       -2.11611        0.82781
H          3.73888       -1.76471       -0.49939
H          3.99013        2.02441        1.00700
H          4.28905        0.53383        0.24139
C          3.09778        0.29991        1.83896
C          2.92982       -1.11751        1.26955
N          3.58629        1.14036        0.71052
N          4.07206       -1.43461        0.41562
H          2.80945        1.31769        0.00622
