30
1sa1msa1a1dma_54.log	Energy: -976497.8502894
S          1.26734       -1.49083        0.09465
O          0.67282       -0.82512       -1.10575
O          2.69874       -1.74418       -0.07684
O          0.85541       -0.83700        1.33724
O          0.54061       -2.94570        0.18813
H          0.90257       -3.51180       -0.50714
S         -2.51180        0.17682       -0.15655
O         -3.87815        0.48676       -0.51604
O         -1.58867        1.28570        0.12114
O         -1.90380       -0.70959       -1.31375
H         -0.89578       -0.76719       -1.24618
C         -2.49267       -0.90475        1.25492
H         -2.97038       -0.36655        2.07468
H         -3.05864       -1.80073        1.00064
H         -1.45337       -1.13810        1.49618
N          3.52056        1.01405       -0.83803
H          3.54524        1.06329       -1.85214
H          3.49739        0.01953       -0.59420
H          4.39363        1.39996       -0.49318
N          1.07239        1.98697        0.18305
C          0.69889        3.15222       -0.64334
C          1.23966        2.28908        1.61976
H          0.32675        1.28150        0.09034
H          1.48796        3.90381       -0.58036
H          0.57923        2.82113       -1.67489
H         -0.24742        3.55683       -0.28448
H          2.04139        3.02009        1.74049
H          0.30283        2.69014        2.00885
H          1.48314        1.35773        2.13019
H          1.97502        1.58105       -0.19464
