39
1sa1msa1dma1tma_131.log	Energy: -1050462.7774192
S          1.00382       -0.51117       -0.24010
O          1.49767        0.84412       -0.54107
O         -0.03592       -1.01520       -1.15252
O          2.14945       -1.45981       -0.10385
O          0.37254       -0.46605        1.22544
H          3.43984       -0.66903       -0.00316
H         -0.61705       -0.49699        1.18276
S         -3.28998       -0.64890        0.14653
O         -4.18992        0.48122        0.25696
O         -2.27735       -0.86155        1.18773
O         -2.60774       -0.66621       -1.27543
H         -1.60411       -0.68710       -1.20637
C         -4.27112       -2.13101        0.06375
H         -4.80699       -2.21552        1.00958
H         -4.96977       -2.03184       -0.76693
H         -3.60265       -2.97899       -0.08253
N         -1.33559        1.96156       -0.07270
C         -1.63466        2.51944        1.23385
C         -2.04557        2.62862       -1.15007
H         -0.33564        1.99006       -0.24682
H         -2.69150        2.34750        1.46244
H         -1.03759        2.00843        1.99487
H         -1.44020        3.60544        1.30680
H         -3.12098        2.46982       -1.02273
H         -1.85950        3.71753       -1.19162
H         -1.75249        2.18823       -2.10719
N          4.36197       -0.11282        0.08698
C          4.57420        0.57598       -1.20888
H          4.66634       -0.17680       -1.99256
H          3.69846        1.19486       -1.40529
H          5.48448        1.17876       -1.15632
C          4.16652        0.85342        1.19552
H          3.32847        1.49968        0.93467
H          3.92340        0.29940        2.10298
H          5.08311        1.43108        1.33883
C          5.42684       -1.09516        0.38297
H          5.18555       -1.60644        1.31541
H          5.46822       -1.82540       -0.42569
H          6.38756       -0.58258        0.47520
