39
1sa1msa1dma1tma_99.log	Energy: -1050471.4734517
S          0.30693       -1.68005       -0.48186
O         -0.04890       -0.40197       -1.23490
O         -0.81535       -2.60880       -0.51215
O          1.63008       -2.16677       -0.82375
O          0.46709       -1.15629        1.04961
H         -0.39153       -0.75987        1.30892
S         -3.02653        0.22161        0.30183
O         -4.06837        1.21573        0.44278
O         -1.85934        0.32655        1.19874
O         -2.51018        0.27418       -1.18816
H         -1.55677       -0.08520       -1.26280
C         -3.70104       -1.41192        0.45763
H         -4.06769       -1.51393        1.47968
H         -4.51799       -1.50009       -0.25855
H         -2.90282       -2.12614        0.24103
N          3.63500       -0.16653        0.29975
C          3.80111       -0.52756        1.70108
C          4.90924       -0.00992       -0.38579
H          3.09101       -0.89592       -0.15928
H          4.25049        0.30967        2.24968
H          2.82312       -0.74908        2.13598
H          4.44694       -1.40907        1.84732
H          5.45155        0.84707        0.03137
H          5.56305       -0.89387       -0.30150
H          4.73731        0.18176       -1.44950
N          0.72564        2.00431       -0.27671
C         -0.42274        2.88366       -0.60739
H         -0.69981        2.72563       -1.64986
H         -1.26240        2.62545        0.03668
H         -0.13108        3.92380       -0.44691
C          1.05437        2.03989        1.17176
H          0.16711        1.74735        1.73296
H          1.87080        1.33826        1.34337
H          1.35546        3.05665        1.43544
C          1.92025        2.30317       -1.10881
H          2.70769        1.60955       -0.80106
H          1.66166        2.15235       -2.15739
H          2.22009        3.33953       -0.93688
H          0.44562        1.02162       -0.52782
