32
1sa1msa1a1eda_225.log	Energy: -1011229.5293129
S         -0.41026        1.55077        0.32690
O          0.08743        0.64911        1.42146
O         -0.52931        0.74262       -0.92429
O         -1.60130        2.29835        0.67970
O          0.73698        2.62504        0.07293
H          1.59193        2.14935       -0.03988
S          2.86932       -0.49729       -0.36456
O          4.07332       -1.28377       -0.21863
O          2.93366        0.95549       -0.17672
O          1.77754       -1.08056        0.62865
H          1.13670       -0.34579        0.94609
C          2.15350       -0.80237       -1.96372
H          2.85808       -0.42045       -2.70367
H          2.02401       -1.87851       -2.08001
H          1.20210       -0.26876       -2.00927
N         -0.56334       -2.18650        2.25247
H          0.37495       -2.47678        1.98536
H         -0.86703       -2.78282        3.01502
H         -0.47360       -1.23457        2.60646
H         -3.82869       -1.35771        1.03459
H         -2.85931        0.13309        1.16415
H         -4.82690        0.48078       -0.34468
H         -3.28531        0.68741       -1.17713
H         -5.11311       -1.57664       -1.46534
H         -4.29357       -0.75560       -2.61543
H         -1.50137       -1.86185        0.77771
H         -2.33589       -2.04068       -0.73670
C         -3.20213       -0.64929        0.48483
C         -3.93968       -0.05198       -0.70678
N         -2.01508       -1.38825       -0.01637
N         -4.23321       -1.11602       -1.67102
H         -1.36332       -0.69912       -0.46083
