28
1sa1msa1eda_84.log	Energy: -975729.5782101
S         -0.95782        1.85070       -0.13606
O         -1.13248        3.17995       -0.68978
O         -2.14888        1.16154        0.36553
O         -0.15144        0.91107       -0.98899
O          0.03927        2.04229        1.16127
H          0.01360        2.97856        1.39925
S          2.66724       -0.76465       -0.01025
O          3.94652       -1.35289       -0.33724
O          1.47969       -1.62193        0.04705
O          2.41055        0.40668       -1.04666
H          1.45104        0.69612       -1.03822
C          2.78310        0.09605        1.54239
H          2.95061       -0.65445        2.31581
H          3.62667        0.78367        1.48251
H          1.84762        0.63387        1.70670
H         -2.80392       -0.59128       -1.26690
H         -2.50945       -2.21036       -1.94360
H         -4.52145       -2.01844       -0.34793
H         -3.36037       -3.27650        0.10018
H         -3.37669       -0.59300        1.31538
H         -3.69305       -2.03699        2.06222
H         -0.66314       -0.68599       -0.71539
H         -1.30428       -1.50490        0.58869
C         -2.52996       -1.61966       -1.02714
C         -3.49878       -2.19331        0.01119
N         -1.16827       -1.55818       -0.43593
N         -3.19193       -1.59339        1.30358
H         -0.55818       -2.34813       -0.63920
