30
1sa1msa1a1dma_125.log	Energy: -976476.3018527
S          2.68170       -0.12101       -0.50740
O          2.00420       -1.40227       -0.67526
O          3.82686        0.18974       -1.32915
O          1.63888        1.04371       -0.73922
O          3.05309       -0.00887        1.00812
H          0.76143        0.80717       -0.32861
H          3.78384        0.72428        1.13108
S         -1.29882       -1.01478        0.17221
O         -1.94186       -1.18249       -1.11746
O         -0.61440        0.26877        0.41910
O         -0.26889       -2.18859        0.45413
H          0.61288       -1.97300        0.04199
C         -2.45842       -1.29105        1.47609
H         -3.24198       -0.53874        1.31753
H         -2.85420       -2.30046        1.36189
H         -1.94557       -1.16694        2.42899
N          4.93502        1.79341        1.10892
H          5.66677        1.65367        1.79813
H          4.60196        2.74925        1.18800
H          5.33947        1.67811        0.18220
N         -4.17912        0.95594       -0.14378
C         -3.55120        2.25975        0.01945
C         -5.62049        1.04173       -0.31710
H         -3.76519        0.47907       -0.93984
H         -3.90486        2.71721        0.95019
H         -2.46787        2.13642        0.09234
H         -3.77414        2.95924       -0.80427
H         -6.07352        1.44187        0.59668
H         -5.92460        1.69334       -1.15430
H         -6.03419        0.04413       -0.48778
