33
1sa1msa1ma1dma_14.log	Energy: -1001170.4712561
S         -2.09365        0.27441       -0.56900
O         -1.18668       -0.40080       -1.71958
O         -1.17905        0.36220        0.62153
O         -2.55106        1.57592       -1.02850
O         -3.12251       -0.76049       -0.33902
H         -2.06770       -2.04226        0.16504
S          2.07176       -0.71940       -0.23260
O          1.30792       -1.92909        0.16634
O          2.43970        0.16034        0.90564
O          1.41049        0.04736       -1.32777
H         -0.22902       -0.16425       -1.61034
C          3.60457       -1.32705       -0.91055
H          3.36852       -1.97488       -1.75483
H          4.19624       -0.47053       -1.23383
H          4.12305       -1.88178       -0.12838
N         -1.29474       -2.59670        0.61008
H         -1.35057       -3.56321        0.29759
C         -1.38175       -2.47630        2.08405
H         -0.52719       -2.97844        2.53662
H         -1.35695       -1.41169        2.31261
H         -2.31682       -2.91429        2.43273
H         -0.37380       -2.20988        0.29421
N          0.64132        2.26921        0.74357
C          0.44306        3.05214        1.97626
C          0.66340        3.06717       -0.50106
H          1.49081        1.67490        0.81678
H         -0.51828        3.56494        1.92034
H          0.44429        2.36947        2.82618
H          1.24776        3.78161        2.08581
H         -0.32195        3.50904       -0.65509
H          1.42609        3.84454       -0.42289
H          0.89773        2.39119       -1.32301
H         -0.13393        1.54837        0.66922
