39
1sa1msa1dma1tma_24.log	Energy: -1050484.3370381
S          2.82111       -0.37936       -0.02292
O          3.11595        1.07377        0.03768
O          2.75398       -1.02846        1.28536
O          1.68009       -0.67727       -0.91378
O          4.07062       -1.04269       -0.82518
H          4.86609       -0.92558       -0.28824
S         -2.89735        0.18419        0.00336
O         -2.39706       -0.21376       -1.33186
O         -2.83017        1.63191        0.27657
O         -2.24382       -0.63749        1.08177
C         -4.62891       -0.25572        0.06281
H         -5.14698        0.31460       -0.70872
H         -4.72365       -1.32587       -0.12354
H         -5.01354       -0.00188        1.05085
N         -0.36130       -2.26914        0.06209
C         -0.96961       -3.04159       -1.04143
C          0.20454       -3.09302        1.15060
H          0.39290       -1.66638       -0.32591
H         -1.73863       -3.69987       -0.63270
H         -1.42335       -2.33186       -1.73345
H         -0.19713       -3.63326       -1.53580
H         -0.60528       -3.63173        1.64532
H          0.92744       -3.79663        0.73437
H          0.71699       -2.43690        1.85353
H         -1.09461       -1.61956        0.46105
N          0.75818        2.41632        0.00029
C          0.95624        3.87095        0.18971
H          1.58056        4.03302        1.06895
H          1.45009        4.28126       -0.69160
H         -0.01726        4.34531        0.32752
C         -0.02977        2.12037       -1.22923
H          0.46718        2.59466       -2.07651
H         -0.05689        1.04162       -1.37336
H         -1.04716        2.49001       -1.09670
C          0.15956        1.79071        1.21241
H          0.06608        0.71947        1.04223
H          0.82596        1.97240        2.05609
H         -0.83849        2.19847        1.37396
H          1.70211        1.97284       -0.10469
