32
1sa1msa1a1eda_32.log	Energy: -1011241.6091525
S          2.74926       -0.43008       -0.12618
O          3.14111        0.93516        0.22900
O          2.48064       -1.29631        1.04801
O          1.68541       -0.53338       -1.14629
O          4.02156       -1.09550       -0.89082
H          4.80879       -0.92896       -0.35504
S         -2.76451       -0.35651       -0.13133
O         -2.65358        1.10627       -0.39649
O         -2.46596       -0.72258        1.28004
O         -1.96403       -1.15112       -1.09903
C         -4.47847       -0.76344       -0.40377
H         -5.08176       -0.16755        0.28123
H         -4.72117       -0.52618       -1.43960
H         -4.61292       -1.82773       -0.21025
N         -0.10909       -2.12738        0.73898
H         -0.19956       -3.12888        0.88296
H          0.86231       -1.80483        0.96242
H         -0.32952       -1.89674       -0.24124
H         -0.84183       -1.61856        1.26818
H          1.52317        2.60578       -0.35680
H          0.08264        3.61750       -0.68194
H          0.33614        3.16316        1.74744
H         -1.17148        2.49833        1.09561
H          1.17696        0.94811        1.86228
H         -0.42621        0.70686        2.20819
H          0.02892        1.85054       -2.21468
H          0.45709        0.70816       -1.09951
C          0.43224        2.64748       -0.32025
C         -0.08369        2.38713        1.09202
N         -0.08303        1.59024       -1.23771
N          0.23005        1.02593        1.50543
H         -1.09480        1.39754       -1.03926
