39
1sa1msa1dma1tma_33.log	Energy: -1050483.3654527
S          0.22773       -1.89071       -0.57026
O          0.85634       -0.79058       -1.53619
O         -0.89041       -2.54496       -1.24735
O          1.39134       -2.76785       -0.28257
O         -0.20011       -1.15599        0.66043
H          2.49601       -1.79924        0.34640
H         -1.73750       -0.66476        0.57782
S          0.16120        2.35973       -0.11953
O          1.48595        1.95684        0.39813
O         -0.89083        2.50075        0.90419
O         -0.28363        1.49564       -1.26790
H          0.38539        0.10231       -1.43980
C          0.37891        3.98068       -0.84347
H          1.14000        3.91140       -1.62097
H         -0.57401        4.29977       -1.26632
H          0.69545        4.66254       -0.05360
N          3.23776       -1.17680        0.79415
C          2.66248       -0.52611        2.00252
C          3.75031       -0.20945       -0.21221
H          3.98524       -1.81267        1.06944
H          1.88950        0.16980        1.67259
H          2.23165       -1.29885        2.63866
H          3.45406        0.01328        2.52625
H          2.95593        0.50918       -0.41815
H          4.62093        0.30436        0.19964
H          4.01391       -0.75606       -1.11735
N         -2.78320       -0.51367        0.49608
C         -3.03722        0.01061       -0.87131
H         -2.46797        0.93155       -0.99886
H         -2.68296       -0.73150       -1.58803
H         -4.11024        0.18161       -0.98915
C         -3.40308       -1.84640        0.68927
H         -2.98479       -2.52737       -0.05312
H         -3.15976       -2.20521        1.68997
H         -4.48606       -1.75593        0.57544
C         -3.18445        0.45723        1.54298
H         -2.94929        0.03184        2.51951
H         -2.61167        1.37483        1.39423
H         -4.25948        0.63794        1.46382
