35
1sa1msa1ma1eda_228.log	Energy: -1035884.4068845
S         -0.12391       -1.75964        0.48496
O         -0.37644       -0.82199       -0.64301
O          0.49145       -1.04070        1.63399
O         -1.29457       -2.55791        0.84582
O          0.96725       -2.80028       -0.04125
H          1.74465       -2.27119       -0.32756
S          2.74392        0.59019       -0.37619
O          2.08014        1.36995       -1.40711
O          2.91032       -0.85219       -0.58785
O          2.07179        0.84215        1.02629
H          1.42829        0.07916        1.28424
C          4.34995        1.29198       -0.08328
H          4.91182        1.19233       -1.01237
H          4.21993        2.34239        0.17616
H          4.82893        0.74077        0.72502
N         -3.07073       -0.73722       -0.49794
H         -2.07221       -0.60320       -0.78050
H         -2.99433       -1.45462        0.23226
C         -3.89962       -1.18483       -1.63294
H         -4.92218       -1.35954       -1.29750
H         -3.89160       -0.40984       -2.39941
H         -3.48211       -2.10448       -2.04240
H         -3.40742        0.18387       -0.10058
H         -2.72338        3.62780        1.01573
H         -2.96323        2.27054        2.12696
H         -0.57906        2.51637        1.37803
H         -1.25788        0.94261        1.02372
H         -0.68319        3.02727       -0.90906
H         -0.36256        1.43477       -0.96235
H         -4.63833        2.27632        0.39721
H         -3.46376        2.22117       -0.75287
C         -2.71311        2.53057        1.09382
C         -1.32082        2.00015        0.75314
N         -3.70865        1.92477        0.19140
N         -1.06499        2.11519       -0.68126
