38
1sa1msa1dma1eda_199.log	Energy: -1060548.5026204
S          2.61920       -0.49464       -0.28837
O          2.54496       -0.26229        1.15830
O          1.53687       -1.43329       -0.74820
O          2.74655        0.68889       -1.12715
O          3.99208       -1.31091       -0.57126
H          3.99734       -2.09623       -0.00774
S         -1.85243       -1.63804        0.05708
O         -1.80129       -1.39413       -1.38143
O         -2.59803       -0.67479        0.87369
O         -0.42781       -1.79705        0.66007
H          0.41326       -1.62339        0.01328
C         -2.56214       -3.24402        0.33679
H         -2.51984       -3.45666        1.40474
H         -3.59472       -3.20772       -0.01156
H         -1.98554       -3.97279       -0.23245
N          0.04751        1.81775        1.32678
C         -0.10215        0.92096        2.49357
C          1.23506        2.69472        1.38015
H          0.06411        1.28611        0.40418
H         -0.12692        1.52396        3.40422
H         -1.03144        0.36278        2.38017
H          0.74383        0.23433        2.50676
H          1.14926        3.37513        2.22975
H          2.12155        2.06686        1.47387
H          1.29418        3.26215        0.45054
H         -0.82887        2.35655        1.17637
H         -2.88922        1.49637       -1.78612
H         -2.85632        3.25701       -1.67174
H         -0.91701        2.49236       -2.86585
H         -0.42896        3.24771       -1.34610
H         -0.63233        0.32461       -1.69492
H          0.76845        1.17830       -1.69030
H         -3.33986        2.78610        0.45243
H         -2.65481        1.31002        0.44219
C         -2.37715        2.34254       -1.30817
C         -0.92365        2.36569       -1.77339
N         -2.51123        2.28098        0.15919
N         -0.19071        1.17393       -1.34555
