32
1sa1msa1a1eda_83.log	Energy: -1011239.3638170
S         -1.71867       -1.45449        0.33663
O         -1.20644       -2.82329        0.42691
O         -1.26830       -0.83847       -0.98787
O         -3.13367       -1.21401        0.56950
O         -0.97766       -0.56902        1.44760
H          0.01033       -0.61634        1.31271
S          2.43054        0.19837        0.08531
O          1.86610        1.54876       -0.06494
O          2.75260       -0.47195       -1.21105
O          1.61041       -0.70575        0.94676
C          3.99029        0.38629        0.92951
H          4.63238        1.01454        0.31179
H          3.79891        0.85974        1.89269
H          4.43054       -0.60143        1.06568
N          0.90077       -2.39654       -1.47784
H          0.97071       -3.07420       -2.23015
H          0.76116       -2.86944       -0.57968
H          1.73391       -1.74858       -1.43005
H          0.04856       -1.79730       -1.56995
H         -3.17255        2.99863        0.11500
H         -2.86213        1.40223        0.86149
H         -1.14833        3.24963        1.48291
H         -0.46600        1.75874        0.83628
H         -0.45631        4.32266       -0.45410
H          0.52322        3.00290       -0.63493
H         -1.69414        2.20826       -1.67266
H         -1.89925        0.59749       -1.13722
C         -2.47209        2.16148        0.18193
C         -1.06948        2.63167        0.58242
N         -2.34502        1.56912       -1.17877
N         -0.44167        3.31494       -0.54881
H         -3.23602        1.49097       -1.66133
