33
1sa1msa1ma1dma_112.log	Energy: -1001153.2323222
S          0.39297       -0.61003       -0.30026
O          0.86550       -0.12366        1.00770
O         -0.51194        0.35715       -0.97420
O          1.49759       -1.06089       -1.17398
O         -0.45948       -1.93760       -0.05698
H         -1.32405       -1.68823        0.35139
S         -3.56889        0.12556        0.27025
O         -4.79241        0.56673        0.89880
O         -2.85057       -1.01623        0.84993
O         -2.59338        1.36974        0.19638
H         -1.70989        1.06925       -0.18223
C         -3.86284       -0.24900       -1.44586
H         -4.50456       -1.13010       -1.47986
H         -4.35621        0.60954       -1.90100
H         -2.89890       -0.44722       -1.91818
N          2.76720        2.08980        0.72669
H          1.93776        1.66845        1.14873
C          2.39125        2.71995       -0.54754
H          1.63830        3.50783       -0.43597
H          3.27913        3.14842       -1.02041
H          1.97774        1.95793       -1.21362
H          3.13234        2.78012        1.37448
N          3.78989       -0.40914        0.11912
C          4.99666       -0.42331       -0.72499
C          3.88180       -1.22372        1.34813
H          3.53669        0.59400        0.39193
H          5.22108       -1.44773       -1.02721
H          4.81239        0.18281       -1.61265
H          5.84030       -0.01172       -0.16756
H          4.07578       -2.26449        1.08290
H          4.68980       -0.84457        1.97716
H          2.92516       -1.14745        1.86600
H          2.95843       -0.73532       -0.43402
