27
1sa1msa1a1ma_31.log	Energy: -951834.5415947
S          1.90343        0.25765       -0.35650
O          3.07543        0.05197       -1.19863
O          0.59851       -0.08775       -1.01021
O          1.99436       -0.75560        0.86784
O          1.79144        1.62400        0.22056
H          2.94081       -1.11964        0.93907
H          0.23382        2.02864        0.24197
S         -2.37227       -0.79717        0.01486
O         -2.73573        0.12807       -1.05827
O         -2.09948       -0.16159        1.31215
O         -1.18539       -1.71753       -0.41359
H         -0.35590       -1.13379       -0.64933
C         -3.63951       -2.01825        0.22500
H         -4.53794       -1.49197        0.54796
H         -3.79984       -2.51035       -0.73376
H         -3.30961       -2.72713        0.98377
N          4.51858       -1.62070        0.78312
H          5.19108       -1.23328        1.43582
H          4.67715       -1.20338       -0.13260
H          4.67508       -2.62041        0.71624
N         -0.82004        2.15956        0.19284
H         -1.11450        1.81139       -0.72435
C         -1.23687        3.55515        0.42891
H         -2.31948        3.63739        0.33307
H         -0.93046        3.84901        1.43239
H         -0.74913        4.20049       -0.30110
H         -1.24434        1.49936        0.86313
