41
1sa1msa1tma1eda_114.log	Energy: -1085208.0173176
S         -0.54161       -0.99842       -0.37945
O          0.54666       -1.51063       -1.24376
O         -0.16386       -0.97965        1.05017
O         -1.05571        0.32651       -0.83043
O         -1.72494       -2.01783       -0.56758
H         -2.52832       -1.74254        0.03552
S          1.54811        2.43845       -0.03834
O          2.17638        3.74254       -0.09397
O          2.37538        1.24968       -0.26228
O          0.34867        2.45037       -1.05793
H         -0.16044        1.57041       -1.03708
C          0.74469        2.22743        1.53915
H          1.52181        2.28462        2.30296
H          0.02767        3.03869        1.66583
H          0.25773        1.24828        1.55180
H         -4.43916        0.51448        1.85878
H         -2.76035        0.55814        1.27029
H         -4.21525        1.83369       -0.24143
H         -3.52736        0.42621       -1.05114
H         -6.29931        0.69988       -0.13824
H         -5.74154        0.22109       -1.59858
H         -3.57773       -1.70237        1.88766
H         -4.60827       -1.60547        0.60160
C         -3.76424        0.18196        1.05645
C         -4.23915        0.73582       -0.28149
N         -3.71301       -1.28642        0.97166
N         -5.55874        0.18575       -0.60318
N          2.82822       -1.80298        0.07459
C          3.94911       -1.40648       -0.81180
H          3.76822       -1.81887       -1.80484
H          3.97215       -0.31844       -0.86589
H          4.88391       -1.79939       -0.40449
C          2.96388       -1.23516        1.43945
H          3.10487       -0.16030        1.34281
H          2.03707       -1.43199        1.97793
H          3.82067       -1.70320        1.93087
C          2.63776       -3.27267        0.11574
H          1.76363       -3.48835        0.73028
H          2.45665       -3.63118       -0.89720
H          3.53013       -3.74145        0.53687
H          1.94098       -1.44022       -0.36973
