41
1sa1msa1tma1eda_76.log	Energy: -1085216.2439353
S          1.13595       -1.72643       -0.90349
O          0.47993       -0.95511       -2.13675
O          0.60248       -1.08185        0.32600
O          0.75813       -3.12154       -1.07489
O          2.61361       -1.48012       -0.98982
H          3.05824       -0.76123        0.25272
S         -1.27457        1.75484       -0.66832
O         -1.10807        2.08704        0.76605
O         -2.18613        0.59426       -0.87695
O          0.00928        1.60557       -1.40355
H          0.34356       -0.00049       -1.90368
C         -2.09607        3.14762       -1.42428
H         -3.05058        3.29937       -0.91997
H         -1.45549        4.02189       -1.30624
H         -2.24679        2.92144       -2.47985
H          4.40724        1.54955        1.60847
H          4.34206        1.15008       -0.12813
H          2.77182        3.05407        0.50500
H          1.92662        1.67733       -0.20206
H          1.83414        2.49598        2.56583
H          0.67970        1.82586        1.60125
H          4.05489       -0.73671        1.64532
H          2.49929       -0.09717        1.72641
C          3.77133        1.17232        0.80214
C          2.49449        2.00631        0.67289
N          3.34785       -0.20894        1.14186
N          1.66749        1.79071        1.85732
N         -2.33832       -1.28181        1.01567
C         -1.63270       -0.89122        2.26302
H         -0.58342       -1.15449        2.14779
H         -1.72030        0.19064        2.37438
H         -2.09178       -1.41465        3.10551
C         -3.78253       -0.95712        1.08957
H         -3.88814        0.10621        1.30222
H         -4.24103       -1.17307        0.12494
H         -4.24576       -1.55679        1.87642
C         -2.10918       -2.70346        0.65416
H         -2.60282       -2.90296       -0.29728
H         -1.03963       -2.87284        0.53767
H         -2.52840       -3.33807        1.43887
H         -1.97077       -0.67106        0.24363
