42
1sa1msa2tma_11.log	Energy: -1075141.3313247
S         -2.96198        0.54989       -0.03000
O         -3.38005       -0.86344        0.17749
O         -3.03368        1.36849        1.18046
O         -1.69893        0.64583       -0.77650
O         -4.04964        1.17463       -1.07565
H         -4.88193        1.29166       -0.59845
S          2.81343       -0.69558       -0.03927
O          2.52981       -2.13955        0.00854
O          2.84210       -0.01816        1.27713
O          1.90757        0.04000       -0.99194
C          4.45242       -0.53097       -0.73710
H          5.15303       -1.03649       -0.07195
H          4.45467       -0.99793       -1.72217
H          4.69531        0.52951       -0.81429
N          1.05546        2.35209        0.05629
C          0.21727        3.10857       -0.90629
H          0.75543        3.18334       -1.85225
H         -0.71535        2.56229       -1.04935
H          0.02836        4.10593       -0.50193
C          0.37190        2.16066        1.36241
H         -0.61876        1.74114        1.18785
H          0.98547        1.48563        1.96097
H          0.27380        3.13217        1.85298
C          2.38896        2.97422        0.23946
H          2.97144        2.33473        0.90400
H          2.87886        3.04191       -0.73289
H          2.26329        3.97240        0.66547
H          1.25129        1.39430       -0.35628
N         -1.14533       -2.37535        0.07215
C         -0.38680       -1.73027        1.17765
H         -0.19516       -0.69807        0.88941
H         -1.00214       -1.75591        2.07801
H          0.56345       -2.24669        1.31543
C         -1.48492       -3.77807        0.39747
H         -2.05409       -3.79860        1.32760
H         -2.08896       -4.19400       -0.40955
H         -0.56144       -4.34975        0.50839
C         -0.43240       -2.26220       -1.23031
H         -1.05929       -2.71325       -2.00091
H         -0.27477       -1.20529       -1.43871
H          0.53393       -2.76157       -1.14766
H         -2.04650       -1.83766       -0.00035
