33
1sa1msa1ma1dma_119.log	Energy: -1001153.0132022
S         -2.14769       -1.04322       -0.01648
O         -2.12097       -0.91202        1.44463
O         -3.07188       -0.14263       -0.70212
O         -0.78957       -1.02285       -0.64042
O         -2.61020       -2.57214       -0.32850
H         -3.39776       -2.75574        0.20115
S          2.37778       -0.66809        0.01437
O          2.38875        0.27859        1.12496
O          2.11205       -0.10281       -1.31140
O          1.39397       -1.85792        0.29318
H          0.44777       -1.61108       -0.02938
C          3.91616       -1.55220       -0.01172
H          4.70301       -0.81631       -0.17960
H          4.04416       -2.03938        0.95470
H          3.88217       -2.28143       -0.82019
N         -1.21785        1.95352        1.53572
H         -1.96733        2.62514        1.67170
C         -0.13182        2.18196        2.50038
H         -0.46070        2.10740        3.54340
H          0.65425        1.44331        2.32811
H          0.29781        3.17580        2.34279
H         -1.62776        1.02868        1.69104
N         -0.15126        1.81105       -1.00758
C          0.99475        2.74188       -0.99598
C         -1.15770        2.08742       -2.05530
H          0.18956        0.84786       -1.12316
H          0.62101        3.75385       -0.82675
H          1.67153        2.44741       -0.19372
H          1.52023        2.68800       -1.94998
H         -1.56035        3.09051       -1.90148
H         -0.68366        2.02495       -3.03637
H         -1.95504        1.34797       -1.96540
H         -0.62205        1.85181       -0.03681
