33
1sa1msa1ma1dma_18.log	Energy: -1001170.3683382
S         -1.81856       -1.13269        0.25404
O         -1.45568        0.04010        1.31094
O         -1.77772       -2.41182        0.94425
O         -3.12876       -0.68410       -0.26115
O         -0.77381       -1.00019       -0.81349
H         -2.58498        0.79138       -0.98133
H          0.64598       -1.64681       -0.55717
S          1.61776        1.43942        0.07846
O          0.52123        2.13921       -0.63729
O          2.48826        0.62142       -0.80274
O          1.13283        0.65767        1.25358
H         -0.47636        0.20283        1.33969
C          2.65734        2.72778        0.74086
H          3.03839        3.31605       -0.09406
H          2.05355        3.34487        1.40629
H          3.47541        2.25686        1.28588
N         -2.12690        1.72104       -1.15195
H         -1.09579        1.62244       -1.00376
C         -2.65923        2.71655       -0.19278
H         -2.12255        3.65687       -0.31352
H         -3.72606        2.85575       -0.36656
H         -2.49624        2.31417        0.80620
H         -2.27680        1.99743       -2.11941
N          1.64151       -1.98539       -0.41688
C          1.97019       -2.95411       -1.47765
C          1.76820       -2.50904        0.96004
H          2.19139       -1.11034       -0.53069
H          1.29354       -3.80673       -1.40290
H          1.84030       -2.46937       -2.44533
H          3.00340       -3.28816       -1.36576
H          1.01016       -3.27788        1.11632
H          2.76926       -2.92054        1.10400
H          1.59819       -1.68135        1.64836
