38
1sa1msa1dma1eda_30.log	Energy: -1060563.7804868
S          2.13063        1.16965       -0.36519
O          2.12128        0.14857       -1.43556
O          1.33055        2.36449       -0.71285
O          1.85534        0.63331        0.96861
O          3.66731        1.68926       -0.26033
H          3.91613        2.06923       -1.11389
S         -2.57382       -0.87540       -0.24134
O         -2.93192        0.50503       -0.67857
O         -1.64029       -0.85704        0.91375
O         -2.08636       -1.73761       -1.34735
C         -4.09875       -1.60621        0.32577
H         -4.48079       -1.00379        1.15000
H         -4.80296       -1.61198       -0.50639
H         -3.88684       -2.62275        0.65757
N         -1.22229        2.37987        0.29913
C         -1.04764        2.16769        1.75393
C         -1.79036        3.69367       -0.06079
H         -0.28706        2.29235       -0.15325
H         -2.01628        2.27204        2.24543
H         -0.66214        1.16042        1.90357
H         -0.34045        2.90466        2.13715
H         -2.77257        3.80041        0.40208
H         -1.12256        4.48241        0.28907
H         -1.88902        3.74834       -1.14487
H         -1.84309        1.62520       -0.08789
H          0.82192       -3.94978        0.07581
H          1.68639       -3.48979       -1.41613
H          3.20796       -3.75993        0.57140
H          3.28540       -2.14387       -0.13874
H          2.83707       -2.60074        2.46883
H          2.23821       -1.27273        1.70600
H         -0.33274       -2.11063       -1.04591
H          0.24428       -1.64543        0.40278
C          1.41228       -3.16896       -0.40821
C          2.64502       -2.83265        0.42935
N          0.55417       -1.96866       -0.52570
N          2.23406       -2.29075        1.71884
H          1.07793       -1.18426       -0.96589
