30
1sa1msa2ma_71.log	Energy: -976491.4948359
S         -1.49580       -0.13791       -0.26823
O         -1.79921       -0.98266        0.88329
O         -0.22996       -0.48526       -0.98805
O         -2.62433       -0.36000       -1.35336
O         -1.47798        1.32277        0.04265
H         -3.49402       -0.62286       -0.86538
H         -0.09532        1.93287       -0.41489
S          2.81758       -0.58531        0.17444
O          2.59884       -0.03400        1.50487
O          2.88542        0.40079       -0.91971
O          1.77978       -1.69815       -0.17379
H          0.87456       -1.27408       -0.46973
C          4.30792       -1.54690        0.16415
H          5.12568       -0.86826        0.40770
H          4.21284       -2.32378        0.92248
H          4.43717       -1.97702       -0.82827
N          0.86726        2.34792       -0.62009
H          1.49563        1.57645       -0.91348
C          1.40596        2.99195        0.60103
H          2.37347        3.44397        0.38323
H          0.69956        3.74571        0.94775
H          1.53062        2.21743        1.35765
H          0.77709        3.00373       -1.39252
N         -4.67986       -1.01575        0.14623
H         -5.48082       -1.51792       -0.22179
C         -5.09158        0.17953        0.89411
H         -5.76128       -0.04365        1.73276
H         -4.19586        0.67085        1.28001
H         -5.59364        0.87266        0.21528
H         -4.16014       -1.64527        0.75379
