32
1sa1msa1a1eda_68.log	Energy: -1011238.5945594
S          2.51549       -1.09862        0.06238
O          2.97307        0.02034        0.88483
O          2.21457       -2.34230        0.77975
O          1.41149       -0.71503       -0.87347
O          3.71180       -1.43537       -0.98924
H          4.49153       -1.69344       -0.47906
S         -2.95530       -0.25107       -0.12624
O         -3.02367       -1.51511       -0.88805
O         -2.71010        0.96507       -0.91715
O         -1.94113       -0.36686        0.99999
C         -4.53412       -0.05121        0.67842
H         -5.29252        0.02874       -0.10085
H         -4.71758       -0.92425        1.30458
H         -4.50333        0.85832        1.27838
N         -0.54088       -2.47670       -0.06076
H          0.13044       -1.90162       -0.61211
H         -1.32396       -2.78754       -0.64119
H         -0.00784       -3.22262        0.38206
H         -0.96541       -1.82657        0.63408
H          0.14611        2.93040        1.62065
H          1.40490        1.66010        1.66801
H          2.35227        3.78760        0.79142
H          2.39910        2.49143       -0.40205
H          0.55285        4.76633       -0.42158
H          1.44089        4.14733       -1.64987
H         -0.74322        0.90204        0.65486
H         -0.50953        2.02534       -0.55157
C          0.81631        2.30982        1.01930
C          1.72647        3.16036        0.14311
N         -0.02214        1.45487        0.14749
N          0.91730        3.90715       -0.81766
H          0.56216        0.75654       -0.35580
