39
1sa1msa1dma1tma_50.log	Energy: -1050479.1973716
S         -0.88150        1.61218        1.03659
O         -1.59995        2.74591        1.57980
O          0.61673        1.72985        1.57130
O         -1.37380        0.26969        1.42983
O         -0.75752        1.65112       -0.47368
H         -1.53994       -0.56780       -0.21876
H          0.67766        1.81835       -1.04491
S          1.53626       -1.68798        0.47862
O          2.62380       -2.61358        0.16429
O          0.49273       -1.58871       -0.58269
O          2.02625       -0.31726        0.85670
H          1.11492        0.87647        1.36925
C          0.69518       -2.28782        1.93722
H          0.30498       -3.28365        1.72098
H          1.42421       -2.33728        2.74654
H         -0.10636       -1.58555        2.17453
N          1.57121        1.96373       -1.62447
C          1.71519        0.80347       -2.53855
C          2.75296        2.18990       -0.75059
H          1.39290        2.80832       -2.16639
H          1.67333       -0.10870       -1.94081
H          0.88280        0.81013       -3.24338
H          2.66211        0.87619       -3.07602
H          2.95733        1.25895       -0.22029
H          3.60213        2.48435       -1.37044
H          2.50570        2.97042       -0.03166
N         -2.27208       -0.97010       -0.84232
C         -1.81395       -0.83960       -2.24530
H         -1.65792        0.22086       -2.44238
H         -0.87366       -1.37919       -2.34529
H         -2.58109       -1.24687       -2.90837
C         -2.42364       -2.38779       -0.43283
H         -1.46709       -2.88378       -0.59377
H         -2.67698       -2.41036        0.62766
H         -3.21907       -2.84884       -1.02263
C         -3.50819       -0.18570       -0.59578
H         -3.75549       -0.25383        0.46238
H         -3.30903        0.85623       -0.84606
H         -4.31282       -0.58797       -1.21540
