32
1sa1msa1a1eda_108.log	Energy: -1011235.3668829
S          2.66472       -0.76639       -0.16350
O          3.06839        0.28909       -1.09023
O          1.72473       -0.34847        0.89659
O          2.22120       -2.01864       -0.82471
O          3.99917       -1.16351        0.69071
H          4.72037       -1.29836        0.06152
S         -2.88033       -0.42454       -0.07070
O         -2.56294       -1.71256       -0.74024
O         -2.95414        0.72827       -1.01770
O         -1.96932       -0.13624        1.06357
C         -4.52616       -0.60871        0.59011
H         -5.20258       -0.82117       -0.23800
H         -4.51802       -1.43467        1.30144
H         -4.80314        0.32211        1.08521
N         -0.17286       -2.41581        0.40134
H         -1.05224       -2.29353       -0.15086
H          0.68766       -2.45375       -0.19514
H         -0.06338       -1.57176        0.97757
H         -0.23378       -3.23558        0.99743
H          0.41677        1.09981       -0.87918
H          0.22584        2.52456       -1.92092
H          2.32788        2.54200       -0.48688
H          1.28542        3.95561       -0.19468
H          1.47161        1.56709        1.48805
H          1.70263        3.13566        1.93515
H         -1.81115        1.80147       -0.58595
H         -0.88728        2.24655        0.77544
C          0.26924        2.18018       -0.88710
C          1.36505        2.86750       -0.07765
N         -1.04167        2.43394       -0.22837
N          1.16359        2.52818        1.33036
H         -1.32577        3.40748       -0.32234
