30
1sa1msa2ma_04.log	Energy: -976509.7642281
S         -2.09775        0.71809       -0.21213
O         -1.39930       -0.20529       -1.34127
O         -3.51640        0.49501       -0.38879
O         -1.53572        0.21126        1.08570
O         -1.60258        2.09984       -0.43495
H         -1.30198       -1.35903        1.14437
H         -0.25838        2.25023        0.46599
S          2.02094       -0.67516       -0.12501
O          1.48229       -2.04977        0.04066
O          2.15811        0.06060        1.16015
O          1.27496        0.12893       -1.13221
H         -0.42014       -0.05539       -1.33603
C          3.66584       -0.88664       -0.77570
H          4.24155       -1.47263       -0.05920
H          3.58614       -1.40961       -1.72862
H          4.10930        0.09969       -0.91285
N         -1.02797       -2.38150        1.03114
H         -0.04894       -2.34936        0.65916
C         -1.95383       -3.05763        0.09184
H         -1.64924       -4.09543       -0.04411
H         -2.96772       -3.00591        0.48831
H         -1.91276       -2.51996       -0.85482
H         -1.01560       -2.82590        1.94581
N          0.66039        2.38479        0.97515
H          0.46033        2.80457        1.87989
C          1.56477        3.21673        0.15244
H          2.51857        3.34307        0.66489
H          1.71594        2.69299       -0.79112
H          1.09966        4.18497       -0.03180
H          1.09384        1.44850        1.13447
