38
1sa1msa1dma1eda_148.log	Energy: -1060550.6490793
S         -2.68315       -0.24511       -0.22521
O         -2.93470       -1.41480        0.61418
O         -2.94586        1.05784        0.38230
O         -1.33813       -0.32412       -0.88787
O         -3.65644       -0.36193       -1.52634
H         -4.56623       -0.23237       -1.22590
S          0.78863        2.13453        0.22533
O          2.00246        2.89027       -0.02099
O          0.85057        1.01430        1.16676
O          0.29567        1.59668       -1.18153
H         -0.43045        0.88967       -1.07588
C         -0.52358        3.21913        0.72818
H         -0.25012        3.62367        1.70341
H         -0.60045        4.01397       -0.01362
H         -1.44530        2.63327        0.78246
N          0.28993       -1.91575        0.77309
C          0.03896       -3.25391        0.20592
C         -0.14100       -1.77484        2.18000
H          1.30949       -1.66602        0.69376
H         -1.03659       -3.43730        0.20725
H          0.42511       -3.25984       -0.81230
H          0.55312       -4.00455        0.80977
H         -1.20713       -1.99326        2.24708
H          0.43651       -2.46687        2.79693
H          0.04426       -0.74669        2.48808
H         -0.21519       -1.23058        0.18433
H          3.19455        0.54341       -0.30120
H          4.69910       -0.34632       -0.12509
H          3.88788       -0.78466       -2.30853
H          3.64605       -2.27428       -1.38696
H          1.51411       -0.30575       -1.86330
H          1.66283       -1.73822       -2.62320
H          3.67189       -1.77148        1.37659
H          2.84339       -0.38838        1.68019
C          3.61153       -0.46434       -0.21694
C          3.30198       -1.23739       -1.49346
N          3.02652       -1.09814        0.97621
N          1.86350       -1.25555       -1.75359
