33
1sa1msa1ma1dma_170.log	Energy: -1001149.3421400
S         -0.44170       -1.19948       -0.45336
O          0.79746       -1.99446       -0.32238
O         -1.67869       -1.94275       -0.23946
O         -0.42943       -0.13701        0.78041
O         -0.44103       -0.35770       -1.67748
H          0.46481        0.28054        0.81339
H         -1.61362        0.80663       -1.55559
S          3.31261        0.26875        0.39703
O          4.03458       -0.08468        1.60189
O          2.02202        0.96370        0.55128
O          3.12130       -0.97190       -0.54780
H          2.18824       -1.38556       -0.47520
C          4.35087        1.27760       -0.63209
H          4.56386        2.19023       -0.07471
H          5.27001        0.72574       -0.82844
H          3.81757        1.49543       -1.55656
N         -2.34864        1.50405       -1.26093
H         -2.87167        1.79922       -2.08167
C         -1.71264        2.64541       -0.56887
H         -2.47684        3.34748       -0.23274
H         -1.17004        2.24901        0.28847
H         -1.01208        3.14762       -1.23643
H         -3.00772        0.94957       -0.57150
N         -3.76112        0.00874        0.49915
C         -5.16545       -0.26421        0.20192
C         -3.54779        0.48746        1.86640
H         -3.20854       -0.84316        0.36342
H         -5.73908        0.66801        0.24209
H         -5.25351       -0.68511       -0.80290
H         -5.61262       -0.97165        0.91382
H         -4.02255        1.46657        1.99356
H         -3.96759       -0.19796        2.61524
H         -2.47448        0.58029        2.04354
