33
1sa1msa1ma1dma_127.log	Energy: -1001154.6568565
S         -0.38377       -1.03889       -0.63450
O         -0.15190        0.43780       -0.89922
O         -0.05771       -1.35326        0.76646
O         -1.71224       -1.44554       -1.07852
O          0.64512       -1.80284       -1.57337
H          1.55180       -1.46152       -1.38170
S          3.18481        0.42369        0.17850
O          4.42701        1.16186        0.20407
O          2.98244       -0.58779       -0.86584
O          2.00086        1.47431        0.10505
H          1.17022        1.06416       -0.29999
C          2.92768       -0.36455        1.75160
H          3.72211       -1.10247        1.87065
H          2.99178        0.39957        2.52610
H          1.94625       -0.84334        1.73011
N         -2.73324       -0.34984        1.84909
H         -1.79113       -0.74420        1.78332
C         -3.71969       -1.40884        1.58228
H         -3.69425       -2.21516        2.32349
H         -4.72562       -0.97915        1.57014
H         -3.50450       -1.83502        0.60042
H         -2.84279        0.00924        2.79264
N         -2.64411        1.41577       -0.28161
C         -2.66748        2.82121        0.16119
C         -3.68086        1.06075       -1.27262
H         -1.70169        1.17878       -0.66216
H         -3.63027        3.03824        0.62791
H         -1.86642        2.97571        0.88514
H         -2.51677        3.48271       -0.69359
H         -4.66716        1.19867       -0.82492
H         -3.58179        1.69958       -2.15210
H         -3.52750        0.01838       -1.55210
H         -2.73396        0.76963        0.57654
