35
1sa1msa1ma1eda_61.log	Energy: -1035898.6380400
S         -0.96048        1.61924       -0.29097
O         -0.65103        0.70882       -1.56933
O         -0.02723        2.76754       -0.33023
O         -2.38442        1.98677       -0.48619
O         -0.75432        0.77855        0.90334
H         -3.20149        0.83220        0.30168
H          2.08094        0.86108        1.21264
S          1.91741       -1.37715       -0.08819
O          0.75194       -2.25945        0.06792
O          2.41806       -0.78151        1.18475
O          1.73560       -0.31411       -1.12770
H          0.25244        0.29182       -1.45794
C          3.24838       -2.40211       -0.69354
H          3.44515       -3.17241        0.05252
H          2.92797       -2.85048       -1.63414
H          4.12876       -1.77718       -0.84406
N          2.14270        1.90630        1.09543
H          1.27396        2.24543        0.61364
C          3.32815        2.22480        0.26993
H          3.39463        3.30234        0.11963
H          4.22510        1.85064        0.76342
H          3.19648        1.71847       -0.68615
H          2.18524        2.33261        2.01780
H         -4.66694       -1.75117        0.18188
H         -4.19262       -0.67365       -1.15911
H         -2.73387       -2.78851       -0.93266
H         -1.82971       -1.27369       -0.88100
H         -2.26936       -3.07773        1.32194
H         -1.02264       -2.05497        0.99657
H         -4.46930        0.26354        1.27593
H         -2.92742       -0.41733        1.42780
C         -3.87353       -1.10980       -0.21123
C         -2.55451       -1.88543       -0.33839
N         -3.63374       -0.01753        0.77118
N         -2.03866       -2.14479        1.00124
