35
1sa1msa1ma1eda_187.log	Energy: -1035886.4877247
S          0.27375       -0.95700       -1.05804
O          0.29696       -0.59789        0.39773
O         -0.21387        0.14780       -1.88710
O          1.57302       -1.52674       -1.46651
O         -0.74384       -2.17762       -1.19676
H         -1.61030       -1.88993       -0.82129
S         -3.07677        0.26377        0.57432
O         -4.20336        0.54937        1.43387
O         -2.93189       -1.09109        0.02622
O         -1.76074        0.63870        1.36872
H         -0.95175        0.17056        0.98314
C         -3.06510        1.40043       -0.79348
H         -3.96820        1.20807       -1.37402
H         -3.07412        2.41242       -0.38876
H         -2.16858        1.20548       -1.38599
N          3.11843       -1.45515        0.76690
H          2.59503       -1.55955       -0.13745
H          4.09890       -1.67217        0.60404
C          2.52655       -2.33141        1.80311
H          3.03687       -2.17157        2.75378
H          1.47343       -2.06588        1.88921
H          2.61813       -3.37517        1.50202
H          3.02072       -0.41087        1.04720
H          3.50766        3.11035        0.76786
H          4.46141        1.72312        0.21809
H          3.14997        2.64491       -1.65026
H          2.58000        1.02350       -1.26891
H          1.15044        3.49291       -0.78985
H          0.59093        1.98455       -1.18127
H          3.04297        1.47328        2.34062
H          1.78144        1.35149        1.29928
C          3.43999        2.07581        0.40535
C          2.62613        2.05037       -0.88934
N          2.79014        1.20061        1.39581
N          1.26538        2.50094       -0.62430
