23
1sa1msa1ma_51.log	Energy: -916325.8151360
S         -1.79516       -1.00791       -0.06290
O         -1.67093       -2.45055       -0.14239
O         -3.11901       -0.39832       -0.01965
O         -1.17663       -0.53756        1.40534
O         -0.88371       -0.29039       -1.03007
H         -0.26228       -0.86496        1.47541
H         -0.94076        1.22541       -0.52908
S          2.19381        0.09219        0.05331
O          1.70796        1.44219       -0.16862
O          1.68265       -0.68308        1.17935
O          3.79529        0.20645        0.27144
H          4.03054       -0.29438        1.06635
C          2.09407       -0.84699       -1.44332
H          1.02343       -0.94983       -1.64777
H          2.60763       -0.28935       -2.22647
H          2.56292       -1.81447       -1.26536
N         -1.07935        2.06095        0.12548
H         -1.14218        1.59860        1.03978
C         -2.31596        2.80748       -0.19977
H         -2.48883        3.58504        0.54440
H         -2.20764        3.25278       -1.18822
H         -3.13438        2.08693       -0.20338
H         -0.22505        2.61614        0.10477
