35
1sa1msa1ma1eda_133.log	Energy: -1035886.8396195
S         -2.60488       -0.41336       -0.19580
O         -2.13564        0.82669       -0.89170
O         -2.31273       -1.64615       -0.91267
O         -2.23179       -0.40449        1.23143
O         -4.21576       -0.29581       -0.24683
H         -4.47322        0.52078        0.20309
S          0.92126        2.19909        0.13831
O          1.95474        1.30210        0.67668
O         -0.05739        2.71829        1.07645
O          0.22829        1.48488       -1.07136
H         -0.79184        1.23260       -0.92921
C          1.75196        3.53972       -0.68119
H          2.41547        3.12604       -1.44021
H          0.99579        4.18408       -1.12888
H          2.32027        4.07740        0.07842
N          0.44857       -1.00698        1.62389
H         -0.54322       -0.71264        1.69615
H          0.59992       -1.23850        0.58109
C          0.75871       -2.18214        2.45955
H          1.78810       -2.47873        2.25459
H          0.62734       -1.93984        3.51456
H          0.07631       -2.98779        2.18682
H          1.05381       -0.20616        1.81885
H          3.30244       -1.29461       -1.91581
H          3.84180       -2.84335       -1.26847
H          1.64740       -3.03457       -2.34555
H          1.57755       -3.45586       -0.62498
H          0.82219       -0.78179       -1.60498
H         -0.25222       -1.96354       -1.26443
H          4.25823       -1.42569        0.45792
H          2.91025       -0.53739        0.25871
C          3.11186       -2.04026       -1.12578
C          1.71957       -2.62710       -1.32727
N          3.27479       -1.48704        0.21984
N          0.68682       -1.62565       -1.05166
