36
1sa1msa2dma_127.log	Energy: -1025813.3757964
S         -0.22008       -1.42252       -0.55350
O          0.21469       -0.30078       -1.44183
O         -1.43777       -2.08013       -1.00731
O          0.92738       -2.52075       -0.61422
O         -0.30262       -0.94920        0.86080
H          1.79202       -2.07901       -0.43644
H         -2.02730       -0.69271        1.13929
S          3.16935        0.43378        0.24996
O          4.43301        1.13384        0.21896
O          3.13610       -0.99155       -0.09797
O          2.15869        1.21266       -0.68576
H          1.41232        0.60539       -1.00542
C          2.43485        0.61043        1.86115
H          1.45344        0.13113        1.83486
H          3.09586        0.11063        2.57039
H          2.36524        1.67515        2.08469
N         -2.07453        1.55161       -0.87715
C         -1.16890        2.40384       -0.10159
C         -2.97067        2.31488       -1.74322
H         -1.49024        0.93458       -1.44462
H         -1.75469        3.05016        0.56163
H         -0.51373        1.76864        0.50063
H         -0.53960        3.04015       -0.73746
H         -3.64099        2.92662       -1.13040
H         -2.42582        2.98368       -2.42396
H         -3.57666        1.62919       -2.34002
N         -2.94838       -0.21654        1.03268
C         -3.27324        0.51831        2.26778
C         -3.98079       -1.17968        0.59909
H         -2.73695        0.48914        0.23725
H         -3.42303       -0.18561        3.08854
H         -2.44643        1.18760        2.50843
H         -4.18419        1.10034        2.11544
H         -4.14916       -1.91535        1.38789
H         -4.90861       -0.64257        0.39195
H         -3.61306       -1.68207       -0.29522
