38
1sa1msa1dma1eda_261.log	Energy: -1060547.1049246
S         -1.42905       -1.84153       -0.17198
O         -0.41872       -2.09711       -1.23279
O         -0.78340       -1.32912        1.05704
O         -2.60199       -1.09260       -0.60296
O         -2.02333       -3.30043        0.20866
H         -1.28182       -3.87188        0.45149
S          2.47473       -0.40952        0.11349
O          2.67805       -1.41947        1.13670
O          1.71986        0.79202        0.48189
O          1.88895       -1.02625       -1.21172
H          0.96521       -1.46028       -1.12591
C          4.05155        0.10898       -0.52660
H          4.58434       -0.77143       -0.88453
H          3.88566        0.82416       -1.33163
H          4.58739        0.57397        0.30151
N         -0.85180        1.32371        1.65786
C         -2.32310        1.41570        1.76253
C         -0.13237        1.52321        2.92994
H         -0.62457        0.37363        1.30084
H         -2.59403        2.39680        2.15854
H         -2.74721        1.27865        0.76679
H         -2.68559        0.62744        2.42310
H         -0.33733        2.52644        3.30925
H         -0.46884        0.77749        3.65190
H          0.93222        1.39678        2.73765
H         -0.53497        2.03375        0.94314
H         -0.03687        3.44207       -2.40803
H          1.12633        2.54765       -1.40184
H         -0.23182        1.01420       -2.80889
H         -0.39884        0.71677       -1.09145
H         -2.41083        1.93962       -2.80467
H         -2.54540        0.71465       -1.72009
H         -0.07089        4.20396       -0.11055
H         -1.49314        3.46629       -0.48997
C          0.06311        2.74505       -1.56193
C         -0.64309        1.43193       -1.87970
N         -0.49970        3.31001       -0.32592
N         -2.09451        1.60922       -1.89919
