38
1sa1msa1dma1eda_274.log	Energy: -1060548.1227450
S          2.50552       -0.81142       -0.29840
O          2.40636        0.16956       -1.51923
O          3.73330       -1.54520       -0.41199
O          2.62402        0.13697        0.96410
O          1.24103       -1.54065       -0.17721
H          1.76265        0.62761        1.11065
H         -0.56133       -0.23883        1.31672
S         -0.05432        2.24827        0.03578
O          0.55846        3.54689        0.26460
O          0.22952        1.25710        1.15460
O          0.25395        1.60492       -1.27621
H          1.57462        0.74335       -1.46879
C         -1.82593        2.44729        0.04791
H         -2.11076        2.85450        1.01904
H         -2.07579        3.15592       -0.74269
H         -2.30312        1.48088       -0.13808
N         -1.11164       -1.06552        1.64743
C         -2.31098       -0.55670        2.34255
C         -0.24443       -1.90495        2.50434
H         -1.37602       -1.60788        0.78114
H         -1.99736        0.08140        3.17014
H         -2.90559        0.01377        1.62950
H         -2.89376       -1.39769        2.72413
H          0.09078       -1.31430        3.35840
H         -0.81264       -2.77001        2.85147
H          0.61323       -2.22209        1.91324
H         -3.47317       -1.59813       -2.58152
H         -2.92731        0.08160       -2.60484
H         -1.04834       -1.49701       -2.76502
H         -0.91442       -0.43534       -1.37067
H         -1.92130       -3.19621       -1.20277
H         -0.42167       -2.67586       -0.80071
H         -4.50509       -0.11153       -0.89201
H         -3.76861       -1.39685       -0.22112
C         -2.93559       -0.83058       -2.00058
C         -1.49301       -1.26315       -1.78913
N         -3.59629       -0.53163       -0.72479
N         -1.40029       -2.39644       -0.85182
