24
1sa1msa2a_06.log	Energy: -927183.2839558
S          2.47060       -0.00365        0.18714
O          2.31626        1.23747        0.94986
O          2.32043       -1.24832        0.94376
O          1.65216       -0.00187       -1.06897
O          3.97938        0.00125       -0.42111
H          4.60025       -0.00050        0.32027
S         -2.46885        0.00133        0.02019
O         -2.51403       -1.22708       -0.82402
O         -2.50476        1.26013       -0.77914
O         -1.32239       -0.01970        0.95892
C         -3.96899       -0.00913        0.98092
H         -4.81229        0.00994        0.29036
H         -3.98225       -0.91896        1.58121
H         -3.97134        0.87495        1.61862
N          0.01126       -2.16038       -0.51102
H         -1.00146       -1.95034       -0.70740
H          0.61059       -1.43907       -0.96456
H          0.18918       -2.03655        0.48956
H          0.28951       -3.09220       -0.80356
N          0.02904        2.17012       -0.50682
H          0.29104        3.09561       -0.83276
H         -0.99092        1.95474       -0.66273
H          0.61131        1.44048       -0.96852
H          0.25387        2.07072        0.48715
