38
1sa1msa1dma1eda_63.log	Energy: -1060562.0321073
S          2.49957       -1.15759       -0.20528
O          2.64473       -0.26528       -1.35625
O          1.83160       -0.52044        0.95319
O          1.93366       -2.48590       -0.53166
O          3.99126       -1.45172        0.37383
H          4.48764       -1.92330       -0.30869
S         -2.81129        0.50387       -0.01625
O         -2.49574        1.65033        0.84863
O         -3.37357       -0.68576        0.64464
O         -1.60155        0.11963       -0.85447
C         -4.02406        1.06368       -1.20192
H         -4.23496        0.25036       -1.89632
H         -4.92309        1.33966       -0.64991
H         -3.61956        1.92747       -1.72968
N         -0.75931       -2.34942        0.09952
C         -1.68571       -3.31782       -0.52217
C         -0.80323       -2.34174        1.58168
H          0.22213       -2.51970       -0.20495
H         -2.70324       -3.04895       -0.23514
H         -1.57655       -3.25877       -1.60527
H         -1.44090       -4.32443       -0.17940
H         -1.80257       -2.03611        1.89271
H         -0.56446       -3.34239        1.94602
H         -0.05236       -1.63375        1.93227
H         -1.01715       -1.39884       -0.25096
H         -0.33864        3.51931       -0.03299
H         -0.16441        2.62738        1.47527
H          1.50381        4.50622        1.36661
H          2.32675        2.94458        1.37000
H          2.02035        4.71533       -0.92777
H          3.32571        3.84248       -0.45328
H         -0.28456        1.19394       -0.55299
H          1.20984        1.86652       -1.01350
C          0.34338        2.89458        0.54846
C          1.67694        3.59659        0.77714
N          0.59176        1.65646       -0.22192
N          2.31583        3.83814       -0.51538
H          1.08874        0.93775        0.34447
