41
1sa1msa1tma1eda_11.log	Energy: -1085221.1981163
S          2.32699        0.95682       -0.49690
O          2.29358       -0.02802       -1.60023
O          2.19197        2.34947       -0.92840
O          1.45323        0.57725        0.62915
O          3.81659        0.81905        0.17035
H          4.46154        1.13636       -0.47598
S         -2.60451       -0.97789       -0.33882
O         -2.05839       -1.99532       -1.27136
O         -3.33066        0.12901       -0.98507
O         -1.54375       -0.48307        0.60485
C         -3.78761       -1.83979        0.68519
H         -4.57493       -2.22272        0.03541
H         -3.27640       -2.65720        1.19410
H         -4.19677       -1.13297        1.40776
H          0.68664       -3.80408        0.44929
H          1.67563       -3.69306       -1.03176
H          3.08760       -3.68515        0.98701
H          3.24432       -2.15475        0.11559
H          2.79794       -2.20213        2.68031
H          1.99497       -1.09840        1.77819
H         -0.28932       -2.18789       -1.05063
H          0.27203       -1.41137        0.25489
C          1.35934       -3.16645       -0.12798
C          2.55882       -2.76414        0.72307
N          0.59340       -1.97099       -0.54958
N          2.11436       -2.09666        1.94120
H          1.18023       -1.32796       -1.11776
N         -1.19636        2.27084        0.53233
C         -1.15948        2.63246       -0.91256
H         -0.13944        2.50409       -1.27623
H         -1.85455        1.97708       -1.43951
H         -1.46128        3.67739       -1.01517
C         -2.56649        2.42420        1.08807
H         -3.24671        1.82195        0.48484
H         -2.56420        2.07200        2.12013
H         -2.84133        3.48052        1.05011
C         -0.20177        3.04063        1.32347
H         -0.15028        2.61657        2.32624
H          0.77018        2.96566        0.84052
H         -0.53056        4.08157        1.36690
H         -0.98229        1.25082        0.58973
