26
1sa1msa1dma_27.log	Energy: -940997.6950892
S         -0.77430        1.24926       -0.03688
O         -0.68114       -0.08954       -0.74590
O          0.23234        2.18517       -0.50378
O         -2.17359        1.70412       -0.01114
O         -0.47989        0.89274        1.50456
H          0.42006        0.48783        1.55140
S          2.68281       -0.64811        0.05099
O          3.75990       -1.60847        0.12248
O          1.90633       -0.37166        1.26791
O          1.68972       -1.12917       -1.08621
H          0.78060       -0.71043       -0.98107
C          3.29436        0.90148       -0.56852
H          4.00627        1.27818        0.16705
H          3.78795        0.71049       -1.52121
H          2.44835        1.58306       -0.68103
N         -3.21060       -0.78717       -0.14143
C         -4.25607       -1.30455       -1.04540
C         -3.19600       -1.37509        1.21890
H         -2.25585       -0.88201       -0.55410
H         -5.23748       -1.11242       -0.60997
H         -4.17114       -0.79764       -2.00641
H         -4.11600       -2.37778       -1.18057
H         -4.15405       -1.18390        1.70367
H         -3.02188       -2.44894        1.14183
H         -2.38933       -0.90229        1.78094
H         -3.24252        0.25113       -0.05944
