41
1sa1msa1tma1eda_229.log	Energy: -1085194.5844608
S          1.16227        0.13768        0.47551
O          2.14525        1.22164        0.56358
O          0.43465        0.07945       -0.80935
O          1.78304       -1.18529        0.80789
O          0.10499        0.45275        1.61815
H          3.29528       -0.97484        1.00140
H         -0.71339       -0.08456        1.47056
S         -2.68608       -1.45743       -0.12299
O         -4.04027       -0.95239       -0.22255
O         -1.93018       -1.21200        1.11164
O         -1.84081       -0.99178       -1.36640
H         -0.98848       -0.51482       -1.09942
C         -2.72762       -3.21747       -0.37581
H         -3.32893       -3.64417        0.42752
H         -3.18818       -3.40904       -1.34484
H         -1.70610       -3.59530       -0.34160
H          6.00193       -1.13875       -0.27859
H          4.57752       -2.17684       -0.57880
H          4.94020       -0.33385       -2.32689
H          3.35139       -0.30123       -1.56674
H          5.25388        1.75525       -1.49699
H          3.80414        1.69262       -0.69091
H          4.82169       -1.21546        1.75211
H          4.46105        0.25754        1.03584
C          4.91187       -1.16290       -0.35098
C          4.41906       -0.14247       -1.38443
N          4.35377       -0.76665        0.96907
N          4.67408        1.20300       -0.88102
N         -2.27185        1.99046       -0.10033
C         -3.18046        2.11284       -1.22616
H         -2.63696        1.93153       -2.15856
H         -3.97230        1.36465       -1.14400
H         -3.64335        3.11858       -1.28433
C         -2.97476        2.14193        1.16060
H         -3.75832        1.38308        1.23731
H         -2.27420        2.00222        1.98947
H         -3.44110        3.14211        1.26715
C         -1.17751        2.93793       -0.21047
H         -0.48757        2.81101        0.62753
H         -0.62226        2.75261       -1.13427
H         -1.53372        3.98793       -0.21753
