39
1sa1msa1dma1tma_35.log	Energy: -1050479.5329135
S          0.42492       -2.21407        0.16056
O         -0.38435       -1.03334       -0.13992
O          1.29038       -1.89048        1.44188
O         -0.23027       -3.47461        0.37825
O          1.48202       -2.39917       -0.98782
H          1.92241       -1.51549       -1.19108
S          2.43128        1.01029       -0.32303
O          1.33265        1.94687       -0.66284
O          2.62143       -0.07371       -1.31936
O          2.29719        0.48673        1.07062
H          1.71970       -0.98311        1.34368
C          3.93398        1.96373       -0.34851
H          4.05449        2.37657       -1.35010
H          3.84509        2.75876        0.39174
H          4.75965        1.29613       -0.10253
N         -1.07582        1.59585        0.59342
C         -0.82441        1.21787        1.99941
C         -1.40789        3.02083        0.40862
H         -0.21583        1.40985        0.04036
H         -1.69266        1.48974        2.60380
H         -0.65783        0.14284        2.03783
H          0.06770        1.73357        2.35679
H         -2.32322        3.25590        0.95566
H         -0.58225        3.63452        0.77051
H         -1.55185        3.21027       -0.65547
N         -3.31279        0.25096       -0.41716
C         -4.43718        1.17948       -0.35291
H         -4.64200        1.44082        0.69002
H         -4.19650        2.09522       -0.90174
H         -5.35459        0.74830       -0.78671
C         -2.98295       -0.08018       -1.80487
H         -2.73601        0.83527       -2.35136
H         -2.11292       -0.73904       -1.81730
H         -3.82556       -0.57503       -2.31459
C         -3.59332       -0.96235        0.35257
H         -2.72825       -1.62589        0.31124
H         -3.78408       -0.69959        1.39759
H         -4.47593       -1.49345       -0.03937
H         -1.87024        1.00212        0.20452
