38
1sa1msa1dma1eda_314.log	Energy: -1060547.5952856
S         -0.25172       -1.86683        0.02910
O         -0.94582       -1.56458        1.30550
O          0.26185       -0.59481       -0.58264
O          0.77621       -2.89577        0.11039
O         -1.35157       -2.43045       -0.97686
H         -2.13688       -1.83583       -0.93520
S         -3.13846        0.78317       -0.01962
O         -4.31053        1.57905        0.26802
O         -3.30751       -0.53134       -0.64904
O         -2.31547        0.61205        1.31920
H         -1.80636       -0.26845        1.33854
C         -2.03087        1.72850       -1.04287
H         -2.53800        1.89615       -1.99388
H         -1.83265        2.67595       -0.54096
H         -1.12009        1.14188       -1.17878
N          2.95560       -0.66914       -0.11987
C          3.55168       -1.63878       -1.06230
C          3.09512       -1.04772        1.30564
H          3.36041        0.28969       -0.24130
H          3.03582       -2.59227       -0.94273
H          3.41007       -1.27149       -2.07918
H          4.61714       -1.74646       -0.85089
H          2.61642       -2.01559        1.45729
H          4.15569       -1.09552        1.56140
H          2.59044       -0.28465        1.90029
H          1.93145       -0.59323       -0.33233
H          2.88551        3.95974        0.12290
H          3.11171        3.26252       -1.48555
H          0.74117        3.17678       -0.72566
H          1.40006        1.59602       -1.12264
H          0.81359        2.56483        1.55595
H          0.47384        1.12672        0.84724
H          4.79622        2.39921       -0.10001
H          3.72906        1.97974        1.06664
C          2.86418        3.01978       -0.44757
C          1.46287        2.41389       -0.39755
N          3.85449        2.05614        0.05984
N          1.17464        1.85953        0.92267
