38
1sa1msa1dma1eda_31.log	Energy: -1060566.5901040
S         -1.34743       -1.44449       -0.99916
O         -1.86690       -2.77178       -1.24170
O         -1.03696       -1.15173        0.44396
O          0.09888       -1.42202       -1.72135
O         -2.11621       -0.30960       -1.56689
H         -1.64846        1.06680       -0.79108
S          1.97756        1.29537       -0.35393
O          2.87167        0.12082       -0.18519
O          1.23998        1.64660        0.88536
O          1.05034        1.15173       -1.51524
H          0.44061       -0.49404       -1.75837
C          3.05004        2.66427       -0.74359
H          3.75266        2.78884        0.08047
H          3.57666        2.42766       -1.66811
H          2.43974        3.55922       -0.86616
N          1.46459       -1.80834        1.13661
C          1.70369       -3.22032        0.77901
C          1.69125       -1.46514        2.55421
H          2.06045       -1.17860        0.55394
H          1.04208       -3.85724        1.36807
H          1.48167       -3.34489       -0.28110
H          2.74605       -3.47464        0.97907
H          1.01694       -2.05161        3.18055
H          2.72823       -1.68034        2.81805
H          1.49219       -0.39953        2.67738
H          0.47260       -1.56069        0.88242
H         -2.24663        3.33189        1.05903
H         -3.20527        2.95030       -0.40140
H         -4.18268        1.96700        1.67486
H         -3.76607        0.74060        0.47105
H         -2.98955        0.56819        2.99070
H         -2.01776        0.03216        1.78006
H         -0.89356        2.54669       -0.87221
H         -0.67515        1.64433        0.46617
C         -2.58396        2.53311        0.39497
C         -3.34467        1.46803        1.17912
N         -1.38541        1.92415       -0.23302
N         -2.46939        0.85731        2.17241
