33
1sa1msa1ma1dma_92.log	Energy: -1001151.5983315
S         -1.14475        0.63447        0.62035
O         -0.19587        0.15326       -0.45509
O         -1.55187       -0.43249        1.52865
O         -0.57147        1.84673        1.25375
O         -2.42100        1.13864       -0.15809
H          0.78264        2.28015        0.51411
H         -3.10736        0.34662       -0.20758
S          2.91939       -0.92473        0.07958
O          3.11817       -0.77839        1.51053
O          3.09057        0.30158       -0.72860
O          1.54934       -1.58625       -0.26278
H          0.76549       -0.88214       -0.28408
C          4.03017       -2.15444       -0.55610
H          5.04241       -1.79790       -0.36409
H          3.84273       -3.08600       -0.02232
H          3.85067       -2.26921       -1.62430
N          1.58048        2.55043       -0.13475
H          2.14045        3.27433        0.30939
C          1.01198        2.99439       -1.42925
H          1.81627        3.26419       -2.11366
H          0.43706        2.15976       -1.82921
H          0.35248        3.84484       -1.25818
H          2.17615        1.70883       -0.27947
N         -3.97129       -0.93568       -0.12788
C         -3.44521       -1.91378       -1.08104
C         -5.41585       -0.74512       -0.22545
H         -3.71024       -1.22026        0.81450
H         -3.59906       -1.54096       -2.09786
H         -2.37247       -2.03208       -0.91470
H         -3.93465       -2.89301       -0.98757
H         -5.65691       -0.32966       -1.20822
H         -5.97241       -1.68440       -0.09925
H         -5.74136       -0.03322        0.53609
