41
1sa1msa1tma1eda_09.log	Energy: -1085222.4709691
S          0.55801        1.53733        1.09377
O          0.40001        0.28955        2.08907
O         -0.34947        2.59932        1.52222
O          2.00264        1.83657        1.17403
O          0.20697        0.99926       -0.26102
H          2.68553        0.22071        0.77463
H         -1.34839        1.17208       -0.61992
S         -0.82234       -2.31360        0.06215
O          0.66676       -2.36851        0.05009
O         -1.42845       -2.01642       -1.24486
O         -1.33626       -1.43180        1.15835
H         -0.31607       -0.33527        1.76871
C         -1.34171       -3.96276        0.50967
H         -0.98760       -4.64921       -0.25975
H         -0.90698       -4.20842        1.47854
H         -2.43068       -3.97362        0.56219
H          1.85595       -0.11765       -1.90075
H          3.36149       -0.32656       -2.81367
H          3.34179       -1.99959       -1.09805
H          4.55750       -0.76423       -0.64036
H          1.82001       -1.19774        0.40487
H          3.24052       -1.27351        1.25616
H          3.29583        1.93317       -2.41655
H          2.84499        1.79486       -0.85230
C          2.94867       -0.00393       -1.85283
C          3.49536       -0.95981       -0.80147
N          3.39681        1.35864       -1.58856
N          2.77995       -0.77972        0.49470
N         -2.35690        1.44205       -0.81074
C         -2.35704        2.91210       -1.00448
H         -1.92325        3.37157       -0.11550
H         -1.74279        3.15149       -1.87330
H         -3.38264        3.25320       -1.16486
C         -2.80099        0.70810       -2.02014
H         -2.18079        1.01782       -2.86234
H         -2.65997       -0.35965       -1.84386
H         -3.84845        0.94877       -2.21847
C         -3.13709        1.05118        0.39213
H         -2.99888       -0.01773        0.55756
H         -2.73910        1.60083        1.24620
H         -4.18866        1.29907        0.22791
