30
1sa1msa2ma_36.log	Energy: -976494.3208624
S          1.44037        1.48513        0.02195
O          0.23239        2.26844        0.36968
O          2.09951        0.89944        1.20617
O          1.23571        0.53831       -1.07773
O          2.47999        2.56459       -0.59147
H          2.60794        3.26805        0.05976
S         -2.45946        0.03610        0.05727
O         -3.87345       -0.22770        0.19684
O         -1.52184       -1.00500        0.50391
O         -2.15601        1.38130        0.82072
H         -1.20339        1.68927        0.69848
C         -2.06582        0.41341       -1.63669
H         -2.32660       -0.46845       -2.22375
H         -2.67055        1.26787       -1.94033
H         -0.99623        0.62725       -1.70746
N          1.98511       -2.28984       -1.32999
H          2.19696       -1.30724       -1.50304
C          0.74621       -2.64232       -2.03459
H          0.79395       -2.46927       -3.11625
H          0.51168       -3.69557       -1.85975
H         -0.07010       -2.04070       -1.62579
H          2.76490       -2.84521       -1.66512
N          1.08161       -1.68325        1.23069
H          1.56008       -0.78376        1.42857
H          0.11568       -1.43172        0.96107
C          1.10549       -2.61754        2.37017
H          0.57585       -3.53099        2.09924
H          2.13975       -2.85416        2.62053
H          0.61708       -2.15794        3.22925
H          1.53568       -2.07168        0.35379
