33
1sa1msa1ma1dma_10.log	Energy: -1001169.0357717
S         -2.57321       -0.12317       -0.23935
O         -2.36366        1.17988       -0.90740
O         -2.34503       -1.27754       -1.13246
O         -1.88443       -0.23383        1.05320
O         -4.14618       -0.16781        0.16329
H         -4.66767       -0.10029       -0.64813
S          2.61397       -0.23090       -0.24398
O          2.71285        0.85586       -1.22554
O          2.43477       -1.59218       -0.81647
O          1.55538        0.04271        0.79436
C          4.15890       -0.28207        0.64880
H          4.94904       -0.50530       -0.06855
H          4.32237        0.69314        1.10775
H          4.09734       -1.06150        1.40816
N         -0.04969       -2.27411        0.08781
H          0.87445       -2.21421       -0.39449
H         -0.04804       -1.48130        0.74277
C         -0.27314       -3.55533        0.78345
H         -1.23446       -3.51481        1.29521
H         -0.27731       -4.36297        0.05217
H          0.52709       -3.71704        1.50540
H         -0.82229       -2.06379       -0.57234
N         -0.04249        2.19051        0.22781
C          0.68283        3.19690       -0.57619
C         -0.53333        2.68096        1.53372
H         -0.86395        1.83660       -0.30606
H          1.51798        3.58495        0.00837
H          1.07640        2.70988       -1.46735
H         -0.00193        4.00498       -0.83872
H          0.31840        2.99376        2.13980
H         -1.20868        3.52239        1.37083
H         -1.06721        1.86278        2.01726
H          0.58036        1.36365        0.40136
