23
1sa1msa1ma_34.log	Energy: -916326.9799253
S          2.23615       -0.53860       -0.06646
O          2.36076       -1.80200       -0.78006
O          0.99465       -0.33259        0.69850
O          3.38125       -0.55604        1.09844
O          2.54744        0.66365       -0.89753
H          4.16343       -0.98606        0.72826
H          1.32201        1.64499       -0.82531
S         -2.35739       -0.26438        0.02450
O         -2.43516        0.40307        1.31231
O         -1.78462        0.45029       -1.11152
O         -3.87307       -0.65087       -0.40884
H         -4.47177       -0.33019        0.28116
C         -1.61111       -1.86151        0.15627
H         -0.55946       -1.67825        0.40061
H         -2.12379       -2.40819        0.94727
H         -1.71186       -2.35836       -0.80861
N          0.41553        2.20443       -0.71379
H          0.39481        2.95217       -1.40336
C          0.28775        2.71816        0.67238
H         -0.67139        3.22200        0.79065
H          0.34721        1.85957        1.34006
H          1.10892        3.40572        0.87373
H         -0.35689        1.54941       -0.91901
