36
1sa1msa2dma_38.log	Energy: -1025821.6097246
S          1.33069        0.43612        0.82360
O          0.26750        1.24883        1.43803
O          2.54102        0.26533        1.65590
O          0.78526       -1.05403        0.66577
O          1.67117        0.90007       -0.55381
H          3.26106        0.14689       -0.90228
S         -2.76469       -1.26509       -0.23361
O         -3.49019       -2.21200       -1.07072
O         -3.47434        0.03263        0.00225
O         -1.36223       -0.98297       -0.70658
H         -0.07649       -1.05815        0.12514
C         -2.56996       -2.00173        1.38447
H         -3.56414       -2.15621        1.80467
H         -2.05575       -2.95578        1.26303
H         -1.98497       -1.32722        2.01140
N         -1.74357        2.04031       -0.28770
C         -2.30613        3.30935        0.20705
C         -1.26940        2.07830       -1.68707
H         -0.95673        1.75214        0.33081
H         -3.17162        3.58158       -0.39943
H         -2.61470        3.17377        1.24370
H         -1.54844        4.09273        0.14901
H         -2.10425        2.34677       -2.33706
H         -0.46364        2.80830       -1.77615
H         -0.90242        1.08385       -1.93837
H         -2.46405        1.26915       -0.18982
N          4.02811       -0.41884       -0.47317
C          5.36330        0.08897       -0.83693
C          3.78958       -1.85125       -0.76767
H          3.79933       -0.23995        0.53304
H          5.52192       -0.04404       -1.90807
H          5.41868        1.14769       -0.58377
H          6.12334       -0.46280       -0.28184
H          3.91453       -2.02402       -1.83741
H          4.50117       -2.45599       -0.20400
H          2.76949       -2.09011       -0.46239
