30
1sa1msa2ma_103.log	Energy: -976491.7568085
S         -0.71748       -1.25847       -0.24708
O         -0.17367       -0.45142       -1.38142
O         -0.72862       -0.46150        1.00227
O         -2.02198       -1.86309       -0.55299
O          0.26833       -2.48686       -0.04629
H          1.18799       -2.13459        0.02802
S          2.88263        0.26842        0.15167
O          4.22393        0.77538       -0.02522
O          2.65934       -1.18187        0.11767
O          1.95690        0.95150       -0.93640
H          1.14266        0.38390       -1.13130
C          2.21695        0.87915        1.68431
H          2.82565        0.45841        2.48576
H          2.29299        1.96662        1.67568
H          1.18110        0.54022        1.75959
N         -2.06703        1.87749       -1.10337
H         -1.51956        1.16640       -1.59386
C         -1.15354        2.67631       -0.26971
H         -0.36492        3.17046       -0.84653
H         -1.72207        3.43629        0.27371
H         -0.68029        2.00665        0.45258
H         -2.50843        2.45933       -1.80873
N         -3.43545        0.19360        0.58867
H         -2.81206        0.18518        1.40020
H         -3.02277        0.93063       -0.08840
C         -4.85396        0.41490        0.91744
H         -5.43723        0.38845       -0.00304
H         -5.20748       -0.36495        1.59214
H         -4.97166        1.38980        1.39131
H         -3.23963       -0.71888        0.12923
