30
1sa1msa2ma_107.log	Energy: -976489.6902818
S         -0.90371       -1.33405       -0.26484
O         -0.67334       -0.71382       -1.57219
O         -0.61788       -0.36903        0.85409
O         -2.23477       -1.93864       -0.08264
O          0.11744       -2.54333       -0.09613
H          1.02637       -2.18321       -0.22094
S          2.67464        0.27606        0.03288
O          2.65952        1.17877       -1.10200
O          2.49791       -1.16043       -0.21471
O          1.64287        0.73721        1.13446
H          0.73384        0.27469        1.00704
C          4.19306        0.49560        0.92858
H          4.99893        0.20923        0.25214
H          4.27923        1.54641        1.20421
H          4.17548       -0.14648        1.80836
N         -1.97554        1.91260       -1.22422
H         -1.40072        1.14000       -1.57636
C         -1.15017        2.77432       -0.36240
H         -0.26153        3.16104       -0.87140
H         -1.74790        3.61629       -0.00190
H         -0.81603        2.18878        0.49596
H         -2.29786        2.43227       -2.03521
N         -3.68923        0.36887        0.24421
H         -3.30625       -0.59267        0.07938
H         -3.09142        1.04213       -0.37668
C         -3.53850        0.72057        1.67580
H         -3.81527        1.76470        1.82585
H         -4.16806        0.07349        2.28684
H         -2.49117        0.56261        1.93456
H         -4.65958        0.39955       -0.05938
