42
1sa1msa2tma_26.log	Energy: -1075135.0370282
S         -0.89051       -0.63043       -0.18818
O         -0.93541       -1.67583        0.84378
O         -0.95058        0.75106        0.39579
O          0.27539       -0.77060       -1.09697
O         -2.15690       -0.76591       -1.10865
H         -2.99176       -0.31417       -0.64197
S          2.37108        1.83277       -0.06056
O          2.99406        1.55112       -1.34460
O          2.44102        0.77928        0.95720
O          0.89661        2.32823       -0.22922
H          0.16931        1.62718        0.01685
C          3.10481        3.31267        0.60312
H          4.16755        3.11325        0.74398
H          2.95924        4.11654       -0.11839
H          2.62197        3.54382        1.55196
N          2.14885       -2.24791        0.05045
C          1.58808       -3.51162       -0.48609
H          0.58850       -3.63956       -0.06910
H          1.51788       -3.42860       -1.57062
H          2.23874       -4.34328       -0.20514
C          3.47315       -1.92619       -0.53064
H          3.36779       -1.84115       -1.61241
H          3.79824       -0.96766       -0.12859
H          4.18021       -2.71921       -0.27475
C          2.16501       -2.25028        1.53509
H          2.54682       -1.28912        1.87407
H          1.13809       -2.37585        1.87929
H          2.80209       -3.06977        1.87806
H          1.47420       -1.50309       -0.28162
N         -4.17838        0.36257        0.02055
C         -4.04991        1.79540       -0.25467
H         -3.08265        2.13951        0.11667
H         -4.08612        1.96144       -1.33423
H         -4.85863        2.36951        0.22365
C         -5.41192       -0.18515       -0.54015
H         -5.42959       -0.01520       -1.61964
H         -5.44799       -1.26209       -0.35795
H         -6.30293        0.28139       -0.09175
C         -4.07634        0.09033        1.45738
H         -4.08699       -0.98947        1.62355
H         -3.12778        0.48406        1.82768
H         -4.90936        0.55159        2.01021
