33
1sa1msa1ma1dma_205.log	Energy: -1001138.1127388
S         -1.16660        0.29758        0.31749
O         -2.25848        1.24852        0.50011
O         -0.06504        0.40044        1.29902
O         -1.66388       -1.11230        0.20670
O         -0.55071        0.66663       -1.11050
H         -3.16001       -1.10420       -0.07930
H          0.32287        0.21845       -1.21569
S          2.79373       -0.89120       -0.11907
O          3.88063        0.06235       -0.01318
O          1.79896       -0.69006       -1.18227
O          2.04741       -1.06081        1.25987
H          1.19965       -0.50323        1.29805
C          3.47278       -2.52143       -0.29925
H          4.03722       -2.52689       -1.23214
H          4.13068       -2.70966        0.54904
H          2.65344       -3.23837       -0.33198
N          2.09998        2.75695        0.68108
H          2.94165        2.20941        0.82785
C          1.92789        3.03720       -0.74020
H          1.96202        2.15189       -1.39427
H          0.96454        3.53103       -0.89588
H          2.70995        3.72731       -1.07272
H          1.32156        2.20802        1.03281
N         -4.21990       -0.99215       -0.27451
C         -4.37286       -0.10555       -1.45607
C         -4.86210       -0.46372        0.95520
H         -4.58684       -1.91848       -0.48763
H         -3.90171        0.84743       -1.21407
H         -3.85802       -0.55946       -2.30286
H         -5.43245        0.02881       -1.68019
H         -4.37247        0.47986        1.19679
H         -5.92965       -0.31929        0.78018
H         -4.70254       -1.17557        1.76513
