30
1sa1msa1a1dma_134.log	Energy: -976472.1306530
S         -1.70247       -0.22546        0.36212
O         -0.65287        0.00017        1.35060
O         -2.94111        0.50735        0.46575
O         -1.12442        0.08129       -1.07699
O         -1.97691       -1.76405        0.34643
H         -0.19833       -0.27319       -1.15002
H         -2.90566       -1.94742       -0.09998
S          2.43178       -0.89547       -0.12340
O          3.42800        0.12540       -0.35675
O          1.29935       -0.99890       -1.05727
O          1.86053       -0.79017        1.35038
H          0.90750       -0.49072        1.35770
C          3.22223       -2.48225       -0.04696
H          3.68647       -2.65223       -1.01887
H          3.97762       -2.44396        0.73770
H          2.46661       -3.23729        0.16608
N         -4.33580       -2.02472       -0.71471
H         -4.34438       -2.15840       -1.72121
H         -4.72455       -1.10507       -0.51638
H         -4.94186       -2.72353       -0.29669
N          0.43133        3.87490       -0.28682
C          1.28325        2.69738       -0.30193
C         -0.95800        3.55718        0.00456
H          0.78017        4.53753        0.39647
H          0.99597        2.05404       -1.14039
H          2.32620        2.98460       -0.45315
H          1.22067        2.09623        0.62270
H         -1.36090        2.92979       -0.79694
H         -1.10048        3.01315        0.95428
H         -1.54812        4.47745        0.03855
