33
1sa1msa1ma1dma_190.log	Energy: -1001140.9236047
S         -0.49588       -1.05420       -0.46643
O         -0.00136        0.31793       -0.75525
O         -1.72253       -1.38981       -1.21150
O          0.59566       -2.06313       -1.02482
O         -0.63798       -1.29402        0.99155
H          1.48863       -1.77080       -0.71745
H         -2.32653       -1.57466        1.34751
S          3.38837        0.33484        0.08121
O          4.31681        0.83594       -0.90997
O          2.90117       -1.04512       -0.05319
O          2.15096        1.30336        0.23058
H          1.30265        0.90164       -0.15704
C          4.11412        0.50224        1.69414
H          5.02124       -0.10286        1.70094
H          4.35252        1.55419        1.85036
H          3.39796        0.14466        2.43308
N         -3.29076       -1.71389        0.96210
H         -3.06823       -1.65653       -0.05491
C         -4.23737       -0.65599        1.39552
H         -5.20280       -0.82299        0.91733
H         -4.34517       -0.69538        2.47949
H         -3.80708        0.30215        1.07272
H         -3.60772       -2.65510        1.18358
N         -2.68688        1.75990       -0.08928
C         -2.83193        3.07596        0.51321
C         -3.31814        1.66641       -1.39886
H         -1.70029        1.53351       -0.19069
H         -3.89049        3.26946        0.72486
H         -2.28626        3.11176        1.46011
H         -2.46626        3.89367       -0.13025
H         -4.40699        1.74945       -1.28880
H         -2.99197        2.45553       -2.09610
H         -3.08145        0.69699       -1.84433
