36
1sa1msa2dma_205.log	Energy: -1025801.1875168
S          1.11104       -1.39817        0.81968
O          2.34784       -2.06017        1.19405
O         -0.13651       -1.90728        1.41212
O          1.19297        0.09731        0.90555
O          1.00999       -1.68021       -0.78785
H          2.30768        0.47272       -0.18999
H          0.13392       -1.33971       -1.09931
S         -2.59502       -0.56718       -0.67785
O         -3.46824       -1.63433       -1.12224
O         -1.28882       -0.43589       -1.35410
O         -2.34842       -0.64144        0.88382
H         -1.51516       -1.16303        1.11383
C         -3.42010        0.99555       -0.77196
H         -3.65248        1.16103       -1.82470
H         -4.33524        0.92549       -0.18367
H         -2.72677        1.74945       -0.37915
N          3.01789        0.36679       -0.97842
C          4.36030        0.18144       -0.37912
C          2.89865        1.47745       -1.94504
H          2.70366       -0.51168       -1.40791
H          4.64042        1.10038        0.13699
H          4.29444       -0.64156        0.33404
H          5.08500       -0.04330       -1.16307
H          3.10191        2.41682       -1.42970
H          3.61330        1.33715       -2.75755
H          1.88164        1.48999       -2.33791
N         -0.81179        2.35835        0.64761
C         -1.11408        2.58874        2.05294
C          0.13768        3.31863        0.11765
H         -0.40055        1.43114        0.56776
H         -1.62087        3.55355        2.16924
H         -1.78660        1.80411        2.40866
H         -0.21744        2.59286        2.69564
H         -0.28380        4.32843        0.17410
H          1.10213        3.32999        0.66005
H          0.33066        3.10122       -0.93833
