20
1sa1msa1a_20.log	Energy: -891665.3452313
S         -2.26464       -0.33323       -0.02307
O         -1.82749        0.38444       -1.23976
O         -2.05505       -1.77467       -0.01685
O         -1.75488        0.34648        1.20450
O         -3.87576       -0.09351       -0.02380
H         -0.99147        1.82912        0.77855
H         -4.27505       -0.78243        0.52410
S          2.49902       -0.10254        0.11073
O          2.03982        1.27637       -0.02441
O          3.40283       -0.45110        1.18900
O          3.23630       -0.45949       -1.28598
H          4.09733       -0.85361       -1.08333
C          1.09789       -1.18331        0.06718
H          0.47576       -0.95087        0.93436
H          0.54318       -0.99844       -0.85361
H          1.45395       -2.21196        0.11234
N         -0.53571        2.38692        0.01344
H         -0.98715        1.96290       -0.82086
H          0.46981        2.15550       -0.00232
H         -0.69995        3.38544        0.08964
