24
1sa1msa2a_87.log	Energy: -927157.4059861
S         -1.71521        0.46315        0.08100
O         -2.90616        1.25991       -0.07929
O         -0.59951        0.99412        0.86432
O         -2.06231       -0.92938        0.69457
O         -1.19606        0.13428       -1.37450
H         -3.03021       -1.21099        0.39616
H         -0.29824       -0.28901       -1.32508
S          2.27959       -0.61389       -0.12089
O          3.15569        0.42707       -0.61741
O          1.16718       -1.04545       -0.98083
O          1.69956       -0.24314        1.30722
H          0.83100        0.24054        1.21542
C          3.23299       -2.04246        0.31772
H          3.71411       -2.39152       -0.59631
H          3.97736       -1.73788        1.05308
H          2.55933       -2.79747        0.72074
N          1.54660        3.30717       -0.09572
H          0.69130        2.82293        0.15751
H          1.93222        3.71344        0.74933
H          2.20766        2.61625       -0.43695
N         -4.48829       -1.42224       -0.06958
H         -5.08274       -1.91733        0.58772
H         -4.56111       -1.88227       -0.97200
H         -4.84386       -0.47398       -0.17322
