29
1sa1msa1tma_11.log	Energy: -965660.0604427
S         -0.50172        1.18034       -0.07006
O         -0.36049       -0.14867       -0.75000
O          0.45186        2.17458       -0.53111
O         -1.92709        1.59335       -0.06825
O         -0.23004        0.88095        1.48673
H          0.67432        0.49167        1.56024
S          2.99206       -0.59833        0.09763
O          4.10354       -1.51692        0.19457
O          2.19963       -0.32517        1.30507
O          2.02553       -1.13605       -1.03469
H          1.10147       -0.73933       -0.94838
C          3.55306        0.96073       -0.54707
H          4.24652        1.37576        0.18547
H          4.05904        0.76985       -1.49330
H          2.68436        1.61022       -0.67757
N         -3.37104       -0.60658       -0.02467
C         -2.75386       -1.49488        0.99371
H         -1.72858       -1.70227        0.68824
H         -2.74103       -0.97328        1.95083
H         -3.33429       -2.41759        1.06716
C         -4.74781       -0.20801        0.34427
H         -4.72460        0.27015        1.32377
H         -5.11923        0.50239       -0.39478
H         -5.39006       -1.09141        0.37230
C         -3.29689       -1.19786       -1.38374
H         -3.72301       -0.49124       -2.09655
H         -2.24500       -1.35804       -1.61964
H         -3.85526       -2.13682       -1.40125
H         -2.78358        0.28742       -0.04650
