40
1sa1msa2eda_253.log	Energy: -1095276.5318417
S         -0.51738       -1.63722       -0.66085
O          0.91804       -1.70449       -1.02710
O         -1.16783       -2.92075       -0.46366
O         -0.59712       -0.90743        0.75914
O         -1.25292       -0.71908       -1.59441
H         -0.32612        0.08791        0.70415
H         -2.55189       -0.12625       -1.02847
S          3.48312        0.12091        0.31211
O          2.63255        0.48829        1.44408
O          4.69520        0.88097        0.08245
O          2.64186        0.18701       -1.03166
H          1.89789       -0.50376       -1.04510
C          3.85806       -1.61319        0.45911
H          4.39442       -1.74580        1.39905
H          2.91651       -2.16509        0.46067
H          4.47909       -1.89989       -0.38929
H          0.53680        3.56765        0.29109
H          1.26119        2.20753       -0.57334
H         -0.39645        3.32648       -1.94493
H         -0.85504        1.64145       -1.62631
H         -1.90945        3.81733        0.04461
H         -2.64075        3.39488       -1.33193
H          0.84182        1.47307        1.54775
H         -0.73736        1.98273        1.56256
C          0.33988        2.55854       -0.10316
C         -0.74006        2.62981       -1.16879
N          0.00950        1.62081        0.97588
N         -2.04023        3.03649       -0.59439
H         -5.21330        0.25768        0.36280
H         -4.75175       -1.16683       -0.60481
H         -4.47306       -1.57072        1.84418
H         -2.95893       -1.72897        0.95919
H         -3.57219        0.20506        2.96314
H         -2.12454       -0.24572        2.31901
H         -3.83095        0.86365       -1.49692
H         -3.02033        1.21331       -0.10598
C         -4.38260       -0.39080        0.06995
C         -3.71097       -1.00821        1.29232
N         -3.40342        0.43768       -0.67761
N         -3.07463        0.03105        2.09918
