35
1sa1msa1ma1eda_110.log	Energy: -1035887.7418840
S         -1.40204        1.77073        0.10362
O         -1.67794        1.28128       -1.25054
O         -2.14499        1.13269        1.19282
O          0.06348        1.81791        0.40058
O         -1.90643        3.30825        0.15224
H         -1.64427        3.73690       -0.67394
S          2.78916       -0.14237       -0.27827
O          2.60522       -1.41430       -0.96393
O          2.51907       -0.11110        1.16341
O          1.96472        0.97916       -1.00083
H          1.15913        1.32375       -0.45213
C          4.44821        0.42179       -0.56004
H          5.11992       -0.32719       -0.13980
H          4.59686        0.51265       -1.63586
H          4.57284        1.38322       -0.06306
N         -0.18283       -0.80220        1.80136
H         -0.30039       -1.11953        0.76709
H          0.73331       -0.33704        1.83615
C         -0.26176       -1.94947        2.72092
H         -0.13368       -1.61883        3.75198
H         -1.23567       -2.42789        2.60930
H          0.52438       -2.66086        2.46611
H         -0.92048       -0.09845        1.95293
H         -1.54876       -3.10521       -1.90144
H         -1.13160       -3.49823       -0.22030
H         -3.49828       -3.09489       -0.37840
H         -2.77361       -1.78354        0.56599
H         -4.41313       -1.18308       -1.26728
H         -3.00059       -0.37461       -1.36171
H          0.43239       -1.90510       -1.14956
H         -0.76625       -0.82077       -1.39144
C         -1.46797       -2.69490       -0.88723
C         -2.84763       -2.21664       -0.44805
N         -0.48018       -1.60767       -0.80796
N         -3.41930       -1.30024       -1.42539
