24
1sa1msa2a_34.log	Energy: -927173.2536123
S          1.66515        0.31808       -0.37812
O          1.81351        0.92724        0.94568
O          0.91344        1.10602       -1.34867
O          3.05165       -0.02750       -0.97834
O          1.03819       -1.10734       -0.21858
H          3.61002       -0.54980       -0.26015
H          0.09884       -1.00744        0.22370
S         -2.49680       -0.46851        0.17783
O         -3.55187       -1.31194        0.71226
O         -1.15672       -0.64768        0.84935
O         -2.82016        0.99905        0.15932
H         -1.63238        1.85952        0.47837
C         -2.22883       -0.91537       -1.53099
H         -1.98094       -1.97679       -1.57076
H         -3.15579       -0.72281       -2.07165
H         -1.41188       -0.31150       -1.93019
N          4.26157       -1.29931        0.93172
H          5.27167       -1.39355        0.90503
H          3.85506       -2.22642        1.01784
H          4.00892       -0.77305        1.76445
N         -0.70588        2.41583        0.62511
H         -0.19022        2.40318       -0.26341
H         -0.11047        1.91356        1.29115
H         -0.87765        3.36585        0.94012
