33
1sa1msa1ma1dma_178.log	Energy: -1001143.6638194
S         -1.05328       -0.15242       -0.79427
O          0.12330        0.33983       -1.52466
O         -2.24544       -0.40446       -1.62531
O         -0.69689       -1.60611       -0.22081
O         -1.38840        0.69087        0.38997
H          0.19684       -1.57830        0.21037
H         -3.09397        0.34892        0.76913
S          2.98014       -0.82900        0.26270
O          4.07148       -1.76641        0.11872
O          1.71632       -1.30160        0.85252
O          2.66969       -0.22336       -1.16923
H          1.70263        0.00454       -1.27735
C          3.50897        0.58133        1.19463
H          3.73052        0.22688        2.20251
H          4.40977        0.96986        0.71848
H          2.69395        1.32063        1.19649
N          0.99770        2.64107        0.91056
H          0.17938        2.03801        0.85008
C          1.20112        3.34743       -0.35365
H          0.38910        4.03777       -0.62525
H          2.13435        3.91819       -0.31095
H          1.29227        2.61280       -1.15641
H          0.83484        3.29817        1.66594
N         -3.94155       -0.17000        0.44557
C         -5.16547        0.64599        0.55280
C         -3.98907       -1.48304        1.12979
H         -3.65424       -0.32173       -0.54739
H         -5.37628        0.84309        1.60484
H         -5.00770        1.58678        0.02566
H         -6.00107        0.10717        0.10414
H         -4.15962       -1.32657        2.19564
H         -4.79617       -2.08057        0.70426
H         -3.03123       -1.98075        0.97118
