20
1sa1msa1a_31.log	Energy: -891658.4435873
S         -2.50850        0.32121       -0.05471
O         -3.78287        0.74130       -0.56327
O         -1.40587        1.25763        0.07669
O         -2.69125       -0.26412        1.43171
O         -2.05324       -0.93012       -0.88180
H         -3.52463       -0.75543        1.48087
H         -1.10514       -1.17397       -0.65814
S          1.56056       -0.54423       -0.15048
O          2.10962       -0.20901       -1.44830
O          0.39112       -1.44335       -0.11870
O          1.18262        0.77602        0.65843
H          0.24005        1.02313        0.47931
C          2.81415       -1.19471        0.91090
H          2.37050       -1.38677        1.88693
H          3.16466       -2.11709        0.44620
H          3.60795       -0.43944        0.94703
N          4.35381        1.52503        0.06202
H          5.28123        1.93151        0.01017
H          3.72636        2.22887        0.43756
H          4.04340        1.32364       -0.88450
