39
1sa1msa1dma1tma_19.log	Energy: -1050487.0545495
S          2.56396       -0.55056        0.35815
O          2.63395        0.34618        1.51245
O          2.35088       -1.97460        0.69361
O          1.66851       -0.08358       -0.72088
O          4.02751       -0.48151       -0.37088
H          4.69063       -0.77221        0.26950
S         -2.66557        0.11834        0.09164
O         -3.03719       -1.05436       -0.72093
O         -2.97676        1.43644       -0.49315
O         -1.22287        0.04248        0.52544
C         -3.61301        0.01140        1.60531
H         -4.66951        0.08812        1.34668
H         -3.40439       -0.94740        2.08099
H         -3.31914        0.83345        2.25872
N         -0.21913       -2.34861       -0.30530
C         -1.03279       -3.37362        0.37719
C         -0.27670       -2.41278       -1.78129
H         -0.55929       -1.39998       -0.00400
H         -0.68972       -4.36725        0.08303
H         -0.91349       -3.24817        1.45387
H         -2.07634       -3.22517        0.09626
H          0.05574       -3.39826       -2.11351
H         -1.30574       -2.22320       -2.08931
H          0.38833       -1.64162       -2.16930
H          0.76683       -2.39161        0.01799
N          0.47096        2.37881       -0.26415
C          1.87330        2.87049       -0.26918
H          2.33941        2.60305        0.67880
H          2.40935        2.37530       -1.07760
H          1.86040        3.95266       -0.41576
C         -0.19635        2.61492       -1.57192
H          0.37721        2.09841       -2.34202
H         -1.21332        2.22189       -1.51602
H         -0.21064        3.68972       -1.76658
C         -0.30231        2.95521        0.86564
H         -1.33618        2.62557        0.77713
H          0.13594        2.59548        1.79641
H         -0.23913        4.04424        0.80682
H          0.51101        1.34878       -0.14246
