40
1sa1msa2eda_49.log	Energy: -1095296.5938842
S         -2.55295       -1.35580       -0.26530
O         -3.38708       -0.25509       -0.74303
O         -1.87171       -2.12414       -1.32611
O         -1.62336       -0.98041        0.83152
O         -3.54360       -2.40555        0.48960
H         -4.24914       -2.64106       -0.12799
S          2.43484        1.24497       -0.44775
O          1.87719        2.50068       -0.96011
O          2.40010        0.10456       -1.40480
O          1.81476        0.84139        0.86408
C          4.16011        1.53046       -0.09136
H          4.65441        1.80126       -1.02458
H          4.22748        2.34468        0.63037
H          4.58852        0.61515        0.31867
H         -0.48218        3.01819       -0.55874
H         -1.23295        1.50749       -1.09106
H         -2.90976        3.37952       -1.05474
H         -3.33972        2.05168        0.02542
H         -2.24204        4.64680        0.84888
H         -3.55380        3.85842        1.42749
H          0.20093        1.45947        1.00991
H         -1.12991        2.26274        1.72480
C         -1.23604        2.26872       -0.31018
C         -2.62557        2.86548       -0.12834
N         -0.82805        1.63397        0.97206
N         -2.62055        3.72862        1.05663
H         -1.28373        0.70298        1.07475
H          1.07747       -3.83479        0.28711
H          2.00877       -3.45342       -1.18674
H          3.41537       -3.51657        0.90953
H          3.49317       -1.97262        0.05236
H          2.90660       -2.19301        2.66828
H          2.28825       -0.96764        1.74886
H         -0.07419       -2.15258       -1.02308
H          0.40173       -1.55998        0.41486
C          1.66696       -3.06989       -0.22262
C          2.83939       -2.62369        0.64917
N          0.77339       -1.91584       -0.47558
N          2.34173       -1.97900        1.85798
H          1.29924       -1.13571       -0.93246
