40
1sa1msa2eda_198.log	Energy: -1095281.3605333
S          0.34212       -1.43764        0.86639
O         -0.92126       -2.17795        1.11341
O          1.56018       -2.20326        1.08065
O          0.35591       -1.13511       -0.73720
O          0.32916       -0.09961        1.50473
H         -0.52206       -0.76050       -0.97576
H          1.32849        0.96717        0.59971
S         -3.33001       -0.32030       -0.49068
O         -4.13243       -1.15751       -1.35941
O         -2.03200        0.15006       -1.01409
O         -3.11688       -0.96887        0.91690
H         -2.21080       -1.46764        1.01059
C         -4.27492        1.11242       -0.02911
H         -4.51416        1.64708       -0.94883
H         -5.18538        0.77089        0.46304
H         -3.67325        1.72572        0.64071
H          5.32622        0.03080       -0.64209
H          5.16110       -1.58646        0.05065
H          4.21059       -1.72422       -2.09752
H          2.86412       -1.74625       -0.95206
H          3.64280        0.49065       -2.66451
H          2.20992       -0.29116       -2.56887
H          3.21797       -0.75005        1.24717
H          4.50642        0.19990        1.58599
C          4.59575       -0.69256       -0.25539
C          3.65128       -1.11607       -1.37386
N          3.86474       -0.06899        0.84767
N          2.99976        0.03818       -2.02070
H          0.92199        3.04651       -1.47090
H         -0.10347        1.61854       -1.18638
H         -1.10159        3.58706       -0.07423
H         -0.58820        2.36517        1.09769
H          0.73027        4.92548        0.59123
H          0.38591        4.20155        2.01792
H          2.26489        1.10890       -0.79173
H          2.27727        2.31358        0.41109
C          0.54015        2.35910       -0.70953
C         -0.22449        3.10424        0.37712
N          1.68545        1.65649       -0.09769
N          0.67706        4.02995        1.06362
