27
1sa1msa1a1ma_09.log	Energy: -951845.7235311
S         -2.08594       -0.64634        0.16919
O         -1.19618        0.14535        1.26819
O         -2.63051       -1.84415        0.78270
O         -3.04070        0.39773       -0.25377
O         -1.11899       -0.93577       -0.94458
H         -1.89671        1.53724       -0.86093
H         -0.14658       -2.10719       -0.81552
S          2.14457        0.12011        0.04432
O          1.46356        1.34960       -0.43121
O          2.55759       -0.80036       -1.04716
O          1.36824       -0.60244        1.09659
H         -0.26546       -0.19661        1.28140
C          3.64680        0.67416        0.82614
H          3.37752        1.35139        1.63668
H          4.17150       -0.20011        1.21113
H          4.24844        1.18728        0.07580
N          0.69502       -2.77260       -0.70170
H          0.78799       -2.98681        0.28957
H          1.52755       -2.20503       -0.98033
H          0.59084       -3.62077       -1.24966
N         -1.07988        2.19023       -0.95772
H         -0.19571        1.64576       -0.83420
C         -1.15725        3.23043        0.09437
H         -0.27327        3.86509        0.04111
H         -2.06479        3.81791       -0.04243
H         -1.19188        2.71366        1.05253
H         -1.07497        2.58723       -1.89435
