38
1sa1msa1dma1eda_267.log	Energy: -1060546.6317888
S          1.51493       -1.70661       -0.30732
O          0.95462       -1.86201        1.04146
O          0.43878       -1.59653       -1.34105
O          2.55109       -0.68805       -0.43415
O          2.29180       -3.08740       -0.66943
H          1.65023       -3.80986       -0.64419
S         -2.53266       -0.32512        0.08611
O         -3.04420        0.76348       -0.73787
O         -1.54977        0.03514        1.11072
O         -2.00004       -1.49873       -0.79860
H         -0.97309       -1.50558       -0.96703
C         -3.90255       -1.13726        0.87275
H         -4.38974       -0.39873        1.50994
H         -4.58465       -1.48557        0.09741
H         -3.51560       -1.96861        1.46094
N          1.06616        1.05750        1.65174
C          2.12138        0.59442        2.57595
C          0.22376        2.15284        2.17709
H          1.51503        1.42503        0.75794
H          1.66125        0.20650        3.48569
H          2.68374       -0.19395        2.07919
H          2.77351        1.43664        2.81539
H         -0.36965        1.78857        3.01582
H          0.87469        2.96812        2.49992
H         -0.43021        2.49588        1.37452
H          0.46302        0.25924        1.40399
H          1.68237        2.69490       -2.64809
H          2.02132        1.04835       -2.05936
H         -0.35216        1.28489       -2.65349
H         -0.11954        0.91037       -0.95693
H         -0.79382        3.55956       -1.99141
H         -1.67208        2.59173       -1.01694
H          3.03451        2.60152       -0.60301
H          1.61273        3.39840       -0.36550
C          1.50329        1.98154       -1.82894
C          0.01542        1.69605       -1.70315
N          2.02754        2.48806       -0.54926
N         -0.72147        2.87553       -1.24337
