42
1sa1msa2tma_48.log	Energy: -1075124.9913860
S         -0.22105        2.10204       -0.07921
O         -0.34524        2.15454        1.36090
O          1.06059        1.55133       -0.60415
O         -1.35296        1.46169       -0.80278
O         -0.24269        3.65718       -0.54274
H         -0.11914        3.69318       -1.50057
S          3.22190       -0.76538        0.43419
O          3.21893       -1.10128       -0.98718
O          2.21806       -1.41909        1.26718
O          3.17429        0.79982        0.62919
H          2.33077        1.17811        0.21213
C          4.83437       -1.06587        1.11461
H          5.01127       -2.13922        1.04110
H          5.56530       -0.51092        0.52757
H          4.83357       -0.74343        2.15539
N         -0.89325       -1.09476       -1.52714
C         -2.17718       -1.46128       -2.17056
H         -2.94115       -1.47586       -1.39168
H         -2.41989       -0.71084       -2.92381
H         -2.07504       -2.44412       -2.63649
C          0.21881       -0.99525       -2.50676
H         -0.03600       -0.23216       -3.24269
H          1.13466       -0.71684       -1.98518
H          0.34616       -1.96504       -2.99308
C         -0.56658       -2.01474       -0.40623
H          0.32534       -1.65771        0.11032
H         -1.42401       -2.02392        0.26691
H         -0.38220       -3.01026       -0.81703
H         -1.03859       -0.13023       -1.13313
N         -3.48113       -0.85040        0.91803
C         -4.22662        0.27411        0.36710
H         -3.52859        1.05801        0.06501
H         -4.79170       -0.05084       -0.51411
H         -4.94573        0.69290        1.09526
C         -4.37113       -1.94076        1.27995
H         -4.93124       -2.27528        0.40002
H         -3.78995       -2.78762        1.65915
H         -5.10042       -1.64990        2.05906
C         -2.68618       -0.42319        2.06481
H         -2.09225       -1.26267        2.44131
H         -2.00432        0.37970        1.77507
H         -3.32054       -0.05699        2.89262
