24
1sa1msa2a_10.log	Energy: -927181.5204597
S          2.32734       -0.00521       -0.10610
O          1.78328       -0.89308        1.08432
O          3.73799       -0.22969       -0.21176
O          1.63682       -0.61761       -1.38245
O          1.83081        1.36151        0.07722
H          0.63904       -0.49659       -1.35028
H          0.42657        2.08693        0.82821
S         -1.68589       -0.77643        0.06685
O         -0.95727       -0.36784       -1.17273
O         -2.99791       -0.14033        0.20361
O         -0.81488       -0.54658        1.27756
H          0.79180       -0.78469        1.19676
C         -1.91638       -2.53792       -0.03292
H         -0.93773       -3.00905       -0.13110
H         -2.41588       -2.86501        0.87896
H         -2.53286       -2.74411       -0.90805
N         -0.52891        2.24680        1.19903
H         -0.82393        1.33308        1.57989
H         -1.18037        2.48152        0.37378
H         -0.53437        2.96999        1.91169
N         -2.16330        2.47973       -1.00772
H         -2.48604        3.32013       -1.47516
H         -2.96891        1.91247       -0.74581
H         -1.64770        1.91248       -1.67870
