41
1sa1msa1tma1eda_59.log	Energy: -1085217.3288804
S          2.78083        0.33222       -0.05853
O          2.65067        1.72812        0.42407
O          3.02942       -0.64472        1.00111
O          1.70627       -0.02609       -1.00524
O          4.09653        0.31854       -1.01655
H          4.87426        0.43579       -0.45425
S         -3.09793       -0.19189       -0.02378
O         -3.30764        1.26737       -0.06539
O         -2.24937       -0.64667        1.10982
O         -2.59397       -0.75341       -1.31913
C         -4.70969       -0.92391        0.22198
H         -5.11712       -0.53878        1.15716
H         -5.34333       -0.63905       -0.61834
H         -4.59527       -2.00708        0.26983
H         -0.55652       -3.98283       -0.47559
H          0.40148       -3.37835       -1.84773
H          1.80906       -4.54658       -0.07806
H          2.30429       -2.88501       -0.39979
H          1.36558       -3.89645        2.06525
H          1.93114       -2.38309        1.70209
H         -1.15632       -1.64047       -0.99709
H         -0.49572       -1.82120        0.49863
C          0.22416       -3.27909       -0.77435
C          1.50696       -3.49926        0.03225
N         -0.27577       -1.91616       -0.50167
N          1.29127       -3.12006        1.42312
H          0.45473       -1.21139       -0.71631
N          0.12555        2.68951        0.12200
C         -0.50525        2.03281        1.30038
H         -0.47924        0.95226        1.16671
H          0.05646        2.31541        2.19122
H         -1.55123        2.33461        1.36325
C          0.16563        4.16092        0.28175
H          0.70100        4.40199        1.20059
H          0.68594        4.59826       -0.57082
H         -0.85644        4.54134        0.33188
C         -0.52945        2.28972       -1.15445
H         -0.04192        2.81954       -1.97358
H         -0.39489        1.21861       -1.28800
H         -1.59538        2.51246       -1.09610
H          1.11637        2.34947        0.10713
