26
1sa1msa1dma_60.log	Energy: -940985.6942028
S         -2.07937       -1.00492       -0.03700
O         -2.91036       -2.19233       -0.12162
O         -1.36179       -0.80243        1.23773
O         -1.24902       -0.66319       -1.20224
O         -3.16501        0.29910       -0.06894
H         -3.89463        0.08997        0.52824
S          2.48341       -0.30412        0.07575
O          1.67223        0.84945       -0.28490
O          3.30972       -0.25444        1.26947
O          3.47443       -0.56157       -1.18382
H          4.36904       -0.69207       -0.83787
C          1.48177       -1.76055        0.05883
H          0.73717       -1.64241        0.85161
H          0.97133       -1.81177       -0.90387
H          2.13084       -2.61804        0.23495
N         -0.86641        1.93018       -0.02569
C         -0.48240        2.35638        1.33912
C         -0.63175        2.93260       -1.08655
H         -0.33318        1.08017       -0.26832
H         -1.05412        3.24543        1.61017
H         -0.70660        1.53070        2.01466
H          0.58648        2.56785        1.34787
H         -1.19652        3.83821       -0.86085
H          0.43583        3.14875       -1.12782
H         -0.95990        2.50780       -2.03491
H         -1.85284        1.62134       -0.02780
