40
1sa1msa2eda_293.log	Energy: -1095269.5732762
S         -1.26319        0.60969       -0.61982
O         -1.80533       -0.74457       -0.94102
O          0.02436        0.83668       -1.31249
O         -2.26090        1.66583       -0.76725
O         -0.93849        0.59542        0.95064
H         -4.72040        0.22679       -0.95193
H         -0.16610       -0.00496        1.10658
S          1.75985       -1.92142        0.06659
O          1.17810       -3.23141       -0.15350
O          1.16869       -1.07631        1.11628
O          1.79730       -1.09779       -1.28947
H          1.08415       -0.39029       -1.32145
C          3.49364       -2.08131        0.38380
H          3.58684       -2.71704        1.26564
H          3.94393       -2.56611       -0.48294
H          3.91454       -1.08413        0.57054
H         -3.27906        0.35359        1.57087
H         -4.80725        0.26169        2.44451
H         -4.19944       -1.83485        1.04236
H         -5.82190       -1.14669        0.74928
H         -3.33804       -0.77160       -0.88807
H         -4.85696       -1.39742       -1.37535
H         -5.50441        2.03864        1.20528
H         -4.05895        2.05427        0.39101
C         -4.36503        0.31613        1.44566
C         -4.74673       -0.96188        0.68271
N         -4.83830        1.47666        0.69386
N         -4.40679       -0.73736       -0.74678
H          4.87084        2.96521        0.63138
H          5.55224        1.66375       -0.35960
H          3.66772        2.69945       -1.52680
H          3.27152        1.02978       -1.10090
H          2.22126        3.41558        0.20693
H          1.41976        2.09700       -0.35779
H          5.12816        1.03394        2.01115
H          3.52233        1.15849        1.67939
C          4.67410        1.95713        0.22762
C          3.45188        2.02554       -0.68343
N          4.43647        0.96320        1.27306
N          2.27514        2.40980        0.09100
