33
1sa1msa1ma1dma_107.log	Energy: -1001154.1222749
S          0.95921       -1.89559        0.05303
O         -0.24360       -2.41781       -0.64137
O          1.79103       -0.99918       -0.75444
O          0.65344       -1.40042        1.40610
O          1.91611       -3.19554        0.23575
H          1.38709       -3.90241        0.62938
S         -2.29946        0.29462       -0.35047
O         -3.45114        1.09312       -0.71506
O         -0.97403        0.92129       -0.38221
O         -2.29191       -0.98004       -1.27932
H         -1.46982       -1.53923       -1.09793
C         -2.52355       -0.38438        1.27954
H         -2.59915        0.45729        1.96995
H         -3.44652       -0.96410        1.28116
H         -1.65168       -0.99908        1.51672
N          1.19646        1.50635        1.88280
H          0.89375        0.53074        1.79876
C          0.10807        2.34609        2.39483
H         -0.30435        1.98848        3.34656
H          0.46701        3.36885        2.53879
H         -0.69182        2.36662        1.65163
H          1.97814        1.50368        2.53102
N          1.72728        1.73540       -0.80770
C          3.18927        1.67713       -1.00189
C          1.06374        2.86026       -1.49403
H          1.32837        0.82583       -1.08634
H          3.64158        2.58245       -0.59238
H          3.56574        0.79320       -0.48838
H          3.41528        1.59861       -2.06664
H          1.46239        3.79847       -1.10292
H          1.25705        2.79927       -2.56673
H         -0.00643        2.79041       -1.30600
H          1.52673        1.75830        0.25037
