33
1sa1msa1ma1dma_213.log	Energy: -1001136.6643026
S         -2.31980        0.71912       -0.21215
O         -1.07321        1.49613       -0.29465
O         -3.49317        1.35391       -0.83458
O         -2.11304       -0.61001       -1.08733
O         -2.61960        0.25622        1.17548
H         -1.24058       -1.01669       -0.85535
H         -4.24128        0.05844        1.25372
S          1.54170       -0.76067       -0.16473
O          2.31875       -0.56538       -1.37549
O          0.28851       -1.52589       -0.27999
O          1.22792        0.62313        0.53503
H          0.33565        0.98732        0.23713
C          2.55620       -1.50320        1.07883
H          2.83125       -2.48990        0.70328
H          3.44467       -0.86703        1.19994
H          1.97347       -1.58247        1.99598
N         -5.20279        0.06619        0.79621
H         -5.93000        0.36038        1.44283
C         -5.47124       -1.24869        0.16482
H         -6.40308       -1.20460       -0.39814
H         -4.63905       -1.46705       -0.50539
H         -5.53092       -2.01295        0.93878
H         -5.03031        0.78583        0.06870
N          5.14053        0.45189        0.71262
C          4.57212        1.72256        0.27603
C          5.73275       -0.30082       -0.38595
H          5.84037        0.62075        1.42706
H          3.77447        1.52692       -0.44566
H          4.13009        2.24131        1.13035
H          5.31099        2.38780       -0.20226
H          4.94308       -0.57636       -1.09221
H          6.50339        0.26252       -0.93916
H          6.18491       -1.21992       -0.00133
