28
1sa1msa1eda_155.log	Energy: -975721.0762726
S          2.20034       -0.81558       -0.16904
O          1.70380       -1.78005       -1.15168
O          2.70311        0.44834       -0.71559
O          1.25955       -0.61170        0.96991
O          3.45732       -1.53655        0.58813
H          4.05645       -1.86544       -0.09504
S         -2.23982       -0.72259        0.04869
O         -1.88547       -0.00776        1.25884
O         -2.18750       -0.03997       -1.23949
O         -3.77762       -1.21344        0.24869
H         -4.25407       -1.05210       -0.57808
C         -1.37669       -2.26461       -0.03845
H         -0.32243       -2.04273       -0.22729
H         -1.50314       -2.77059        0.91825
H         -1.80369       -2.83939       -0.86003
H          0.86158        3.79607        0.80947
H          2.03000        2.52955        0.29617
H          0.63096        3.31742       -1.63191
H          0.39911        1.61116       -1.28230
H         -1.53580        3.72899       -0.87841
H         -1.77102        2.11437       -1.14848
H          0.57692        2.07901        2.36060
H         -0.64981        1.84108        1.25124
C          0.97583        2.78202        0.41654
C          0.21541        2.61806       -0.89770
N          0.37252        1.83635        1.39465
N         -1.21209        2.79790       -0.65020
H          0.72078        0.83967        1.22742
