30
1sa1msa1a1dma_80.log	Energy: -976494.6859474
S          0.71425       -1.30827        0.15818
O          0.42298       -0.75920        1.48463
O          0.42359       -0.29781       -0.92287
O          2.07136       -1.84859       -0.01580
O         -0.26427       -2.53694       -0.10301
H         -1.18131       -2.19168       -0.01488
S         -2.81446        0.39748        0.04253
O         -3.04415        1.00870        1.33629
O         -2.61606       -1.05449       -0.03272
O         -1.62011        1.11913       -0.69512
H         -0.79432        0.49551       -0.79402
C         -4.17069        0.81226       -1.03064
H         -5.06921        0.38246       -0.58675
H         -4.24960        1.89815       -1.07998
H         -3.98002        0.38381       -2.01395
N          1.20541        2.05990        1.06082
H          0.50336        2.39913        0.40767
H          1.34129        2.78325        1.75971
H          0.77789        1.25037        1.52047
N          3.27049        0.66295       -0.20464
C          4.54537        0.88496        0.50181
C          3.29411        0.99173       -1.64531
H          2.97343       -0.33259       -0.10306
H          4.83107        1.93444        0.41003
H          4.41066        0.63162        1.55373
H          5.32174        0.25150        0.06985
H          3.49354        2.05798       -1.76808
H          4.07226        0.40832       -2.14033
H          2.31780        0.73551       -2.05732
H          2.50400        1.24480        0.26606
