32
1sa1msa1a1eda_194.log	Energy: -1011229.5646605
S         -0.29274       -0.62562        1.19287
O         -0.27686        0.65154        0.40072
O          0.74020       -0.68044        2.21333
O         -1.66696       -0.96020        1.60520
O          0.02892       -1.77334        0.08938
H          0.90918       -1.56381       -0.30952
S          3.06792        0.37010       -0.60346
O          4.10565        0.83379       -1.49555
O          2.34671       -0.86397       -0.95108
O          2.01924        1.54291       -0.43790
H          1.13258        1.20398       -0.09492
C          3.72505        0.17104        1.03615
H          4.47323       -0.62089        0.98513
H          4.18263        1.11570        1.32954
H          2.90485       -0.10563        1.70264
N         -2.29462       -2.71023       -1.79456
H         -1.46765       -2.69347       -1.19447
H         -1.97159       -2.82018       -2.75083
H         -2.82422       -3.54343       -1.55830
H         -4.45449        0.91304       -1.61642
H         -4.94057        0.05228       -0.13014
H         -4.64651        2.56993        0.17523
H         -3.64612        1.60020        1.25874
H         -2.68352        3.52198       -0.40597
H         -1.76231        2.26304        0.12834
H         -2.98677       -1.07224       -1.28391
H         -2.17017        0.38059       -1.06601
C         -4.15005        0.63828       -0.60412
C         -3.79422        1.88592        0.20879
N         -2.93614       -0.20048       -0.70370
N         -2.61220        2.51464       -0.37008
H         -2.61056       -0.51389        0.24111
