40
1sa1msa2eda_54.log	Energy: -1095296.4902071
S          2.52214        0.40737       -0.23080
O          2.52122        1.82156        0.15676
O          2.86459       -0.53644        0.83384
O          1.30500        0.01793       -1.00004
O          3.66936        0.24558       -1.38094
H          4.51147        0.52562       -0.99739
S         -3.00893       -0.43577       -0.12746
O         -2.76311       -1.63587       -0.97563
O         -3.13829        0.82267       -0.91215
O         -1.99996       -0.31545        0.95450
C         -4.59634       -0.69412        0.64275
H         -5.34563       -0.77726       -0.14465
H         -4.54714       -1.61371        1.22616
H         -4.80657        0.16059        1.28585
H          0.86520        3.13187       -1.09474
H         -0.76815        3.66224       -1.56709
H          0.36995        5.08892        0.22854
H         -1.22093        4.46963        0.69856
H          1.29740        3.15860        1.48644
H          0.22374        3.93522        2.48596
H         -0.05965        1.17340       -0.74165
H         -0.61271        1.84140        0.65636
C         -0.16260        3.26237       -0.75268
C         -0.18923        4.17554        0.47532
N         -0.67200        1.92031       -0.37160
N          0.32512        3.43026        1.61550
H         -1.65306        1.70519       -0.65138
H         -0.18946       -4.30627       -0.14062
H          0.62261       -3.62809       -1.57098
H          2.23231       -4.56571        0.18123
H          2.51905       -2.87282       -0.22570
H          1.85314       -3.86792        2.31320
H          2.12464       -2.30202        1.85214
H         -1.14111       -2.13707       -0.61469
H         -0.24440       -2.09006        0.78836
C          0.48382       -3.52103       -0.49304
C          1.81550       -3.55628        0.26114
N         -0.17451       -2.22471       -0.22723
N          1.60543       -3.15000        1.64678
H          0.39236       -1.42722       -0.57771
