26
1sa1msa1dma_87.log	Energy: -940969.2793834
S         -1.56967       -1.41455        0.08649
O         -3.00230       -1.46985        0.13542
O         -0.79754       -0.89630        1.20215
O         -0.98168       -2.89557       -0.12742
O         -1.16657       -0.67314       -1.23534
H         -1.56768       -3.38953       -0.72003
H         -0.18476       -0.48164       -1.23718
S          2.33588        0.20706       -0.06389
O          2.66223        1.60901       -0.16949
O          1.42982       -0.38563       -1.06225
O          1.76165       -0.11871        1.38037
H          0.81339       -0.40674        1.33635
C          3.82734       -0.75264       -0.05070
H          4.31898       -0.58805       -1.00999
H          4.45066       -0.39184        0.76752
H          3.56644       -1.80175        0.08280
N         -1.85879        3.24948       -0.00462
C         -0.53912        2.65514       -0.12018
C         -2.92216        2.25912        0.02081
H         -1.90324        3.82307        0.82977
H         -0.43876        2.17795       -1.10112
H          0.23201        3.42528       -0.05044
H         -0.33301        1.89139        0.65231
H         -2.94653        1.72859       -0.93665
H         -2.80843        1.50406        0.81873
H         -3.88800        2.75455        0.15153
