36
1sa1msa2dma_160.log	Energy: -1025809.2538561
S         -1.71457       -1.61836       -0.00202
O         -1.35625       -2.94903        0.45518
O         -2.11871       -0.63760        1.02052
O         -0.71330       -1.01798       -0.94173
O         -3.06813       -1.75965       -0.89124
H         -3.00969       -2.58845       -1.38536
S          2.51036       -0.37534       -0.19675
O          2.68435       -1.03655        1.08754
O          1.87280        0.95036       -0.16583
O          1.77012       -1.29909       -1.22460
H          0.75251       -1.28304       -1.08135
C          4.07996       -0.23077       -1.01052
H          4.71002        0.39048       -0.37353
H          4.50282       -1.22978       -1.11473
H          3.92505        0.23645       -1.98231
N         -0.28026        1.24108        1.71779
C         -0.83345        2.56713        2.05880
C          0.37625        0.54222        2.84592
H         -1.04363        0.62385        1.35773
H         -0.03253        3.20477        2.43702
H         -1.25359        2.98475        1.14452
H         -1.60331        2.44513        2.82214
H          1.18769        1.16290        3.22843
H         -0.36527        0.36063        3.62458
H          0.78497       -0.40201        2.48724
H          0.38250        1.32839        0.92996
N         -1.06944        1.99921       -1.08988
C         -0.29737        2.88778       -1.94294
C         -2.50434        2.09486       -1.31721
H         -0.78302        1.03609       -1.25075
H         -0.52231        3.93169       -1.69231
H          0.76824        2.71636       -1.77147
H         -0.50713        2.75233       -3.01816
H         -2.86220        3.08819       -1.01798
H         -2.78905        1.94155       -2.37165
H         -3.02006        1.34598       -0.71020
