32
1sa1msa1a1eda_188.log	Energy: -1011228.8462061
S          2.16495        0.44651       -0.04228
O          3.07819        0.52974       -1.17887
O          2.13347        1.60503        0.85769
O          0.73788        0.13533       -0.46414
O          2.57235       -0.83374        0.81406
H          3.49122       -1.15552        0.52628
S         -2.02476       -1.51778        0.01504
O         -2.81435       -0.80866       -0.99030
O         -1.83539       -0.83574        1.29463
O         -0.64039       -1.96548       -0.57675
H          0.02777       -1.18334       -0.55947
C         -2.74882       -3.11459        0.29105
H         -3.73838       -2.94449        0.71610
H         -2.82273       -3.62615       -0.66817
H         -2.11586       -3.66532        0.98592
N          4.96701       -1.50401       -0.17140
H          5.09140       -2.43253       -0.55932
H          5.79508       -1.26480        0.36283
H          4.87054       -0.83911       -0.93755
H         -1.16470        3.84276        0.63578
H          0.12270        3.11803       -0.36979
H         -2.07720        3.28891       -1.62730
H         -1.52919        1.62298       -1.44442
H         -3.85807        2.79360       -0.24655
H         -3.46120        1.20246       -0.47558
H         -0.04516        2.09371        1.84581
H         -1.60216        1.54880        1.41865
C         -0.84699        2.94486        0.09976
C         -1.91204        2.48959       -0.89617
N         -0.67753        1.84919        1.08542
N         -3.11924        2.10753       -0.16850
H         -0.22567        1.04032        0.59545
