24
1sa1msa2a_04.log	Energy: -927183.1987212
S         -2.61200       -0.03004        0.15245
O         -2.67571       -1.39087        0.69001
O         -2.36350        1.06805        1.07885
O         -1.67224        0.02532       -1.02801
O         -4.08027        0.29907       -0.45354
H         -4.43138       -0.50856       -0.85172
S          2.59689       -0.00792       -0.03565
O          2.50059        1.35413       -0.63422
O          2.57443       -1.10624       -1.02291
O          1.55211       -0.19067        1.02324
C          4.17616       -0.06750        0.78534
H          4.94979        0.08793        0.03310
H          4.20255        0.72157        1.53655
H          4.28236       -1.04783        1.24991
N          0.01579       -2.01985       -0.25671
H         -0.56239       -2.75782        0.13717
H         -0.60149       -1.35728       -0.77316
H          0.48331       -1.44698        0.48512
H          0.77602       -2.35092       -0.85481
N         -0.05937        2.13108       -0.27293
H         -0.63333        1.43078       -0.79141
H         -0.30766        3.07352       -0.55961
H         -0.31829        1.98980        0.70674
H          0.96720        1.92916       -0.41861
