40
1sa1msa2eda_311.log	Energy: -1095259.8951914
S         -0.95455        0.37554       -0.36589
O         -0.13743        0.03934        0.81876
O         -1.63586        1.67098       -0.29029
O          0.03990        0.51307       -1.59897
O         -1.90989       -0.72829       -0.70574
H          0.73459       -0.18890       -1.55099
H         -3.33216       -0.01895       -0.93529
S          2.49468       -1.96089       -0.06715
O          3.70933       -1.32917        0.40841
O          1.88055       -1.44199       -1.29775
O          1.39686       -2.01648        1.06728
H          0.76236       -1.23149        0.99444
C          2.78807       -3.69712       -0.28672
H          3.55922       -3.79051       -1.05193
H          3.13687       -4.10527        0.66174
H          1.85999       -4.16934       -0.60596
H          0.89624        3.12162       -0.17086
H          2.08357        3.64534       -1.35294
H          2.52777        1.32881       -0.78092
H          3.84831        2.32214       -0.15916
H          1.63356        1.29109        1.45296
H          3.20889        0.88183        1.56337
H          2.28341        4.18248        1.51092
H          3.23174        4.80990        0.35136
C          1.96009        3.35370       -0.30383
C          2.78290        2.09300       -0.02967
N          2.28379        4.49845        0.54412
N          2.57996        1.64830        1.34802
H         -5.65617       -1.33147       -0.31475
H         -6.12283       -0.87701        1.32296
H         -5.80234        1.20311        0.24469
H         -4.29858        0.95586        1.16989
H         -4.68132        0.65294       -1.73668
H         -3.55374        1.57769       -0.89580
H         -4.42953       -2.53030        1.49647
H         -3.33714       -1.61252        0.67058
C         -5.28146       -0.87962        0.62320
C         -4.91608        0.57509        0.35419
N         -4.17554       -1.58295        1.24626
N         -4.10874        0.71029       -0.89726
