30
1sa1msa1a1dma_42.log	Energy: -976498.1857874
S         -1.30201       -1.46936        0.04565
O         -2.73915       -1.60979        0.28592
O         -0.91629       -0.69718       -1.13983
O         -0.56648       -1.02353        1.26431
O         -0.72970       -2.95670       -0.28848
H         -1.05600       -3.56621        0.38766
S          2.52579        0.14270       -0.01997
O          3.91937        0.43982        0.23081
O          1.59731        1.25782       -0.23857
O          2.00925       -0.72857        1.19313
H          1.00399       -0.83327        1.20058
C          2.38917       -0.95656       -1.41173
H          2.81259       -0.43493       -2.27102
H          2.96136       -1.85660       -1.18767
H          1.33221       -1.17709       -1.57380
N         -3.68837        1.12736       -0.44832
H         -4.47482        1.54885        0.03538
H         -3.61318        0.15294       -0.14162
H         -3.91890        1.10036       -1.43713
N         -1.04503        2.01282       -0.00563
C         -0.73358        3.21575       -0.80276
C         -0.85769        2.19284        1.45117
H         -2.04228        1.70663       -0.19250
H          0.31473        3.47457       -0.65329
H         -0.90888        2.99375       -1.85564
H         -1.38106        4.03448       -0.48375
H          0.17660        2.48207        1.63813
H         -1.54479        2.96396        1.80434
H         -1.06172        1.23931        1.93861
H         -0.42855        1.24924       -0.31979
