32
1sa1msa1a1eda_87.log	Energy: -1011239.9057342
S         -1.64507        1.46404       -0.33319
O         -0.57920        1.22322       -1.52724
O         -1.75876        2.89246       -0.08945
O         -2.82227        0.73686       -0.82224
O         -1.04239        0.73283        0.84657
H         -2.03613       -0.97021       -0.91866
H          0.05647        1.46893        1.62893
S          2.29400       -0.21894       -0.14193
O          1.40498       -1.24395       -0.73872
O          2.44525       -0.34276        1.33208
O          1.91358        1.17364       -0.53148
H          0.34943        1.33702       -1.20212
C          3.90771       -0.50238       -0.84206
H          3.82841       -0.39480       -1.92384
H          4.59404        0.23722       -0.42971
H          4.22029       -1.51186       -0.57431
N          0.96800        1.85010        2.05957
H          0.82451        2.25606        2.97866
H          1.34372        2.53635        1.40610
H          1.62725        1.04128        2.06153
H         -0.26894       -2.20174        1.24936
H         -1.23011       -3.65971        1.52082
H         -0.49547       -3.53144       -0.82011
H         -2.28147       -3.41276       -0.70689
H         -0.35852       -1.18143       -1.01246
H         -1.35505       -1.75016       -2.20298
H         -2.67530       -2.17624        2.42166
H         -2.17526       -0.91087        1.49419
C         -1.23567       -2.67872        1.03623
C         -1.33378       -2.92776       -0.46480
N         -2.38309       -1.90711        1.49183
N         -1.28059       -1.63191       -1.19436
