20
1sa1msa1a_14.log	Energy: -891671.4369866
S         -1.54497       -0.69969       -0.10449
O         -2.90304       -1.18491       -0.11788
O         -0.52663       -1.37767       -0.89741
O         -1.50113        0.80876       -0.53587
O         -1.09019       -0.67533        1.40796
H         -2.40346        1.27842       -0.26348
H         -0.13423       -0.40240        1.45773
S          2.37190        0.20361        0.14165
O          3.78605        0.27390        0.41136
O          1.43648        0.13226        1.27316
O          2.12953       -1.05094       -0.79956
H          1.16139       -1.25951       -0.85483
C          1.87547        1.57742       -0.87371
H          2.05849        2.48350       -0.29475
H          2.48472        1.56675       -1.77737
H          0.81292        1.47342       -1.10146
N         -3.80875        1.77219        0.12715
H         -4.35821        0.91504        0.13979
H         -4.23498        2.41425       -0.53366
H         -3.85775        2.18932        1.05170
