27
1sa1msa1a1ma_161.log	Energy: -951819.4626112
S         -1.66016        0.74142        0.52956
O         -2.98573        0.68149        1.11577
O         -0.50375        1.01221        1.37103
O         -1.36910       -0.63744       -0.19041
O         -1.70116        1.77573       -0.63855
H         -2.25000       -0.97106       -0.63534
H         -0.72163        2.17250       -0.83123
S          3.00056       -0.47949       -0.00382
O          2.46987        0.33923       -1.08001
O          3.95449        0.08358        0.93695
O          3.72699       -1.75520       -0.70576
H          4.63475       -1.79527       -0.37213
C          1.66697       -1.27128        0.84651
H          1.08559       -0.48275        1.33240
H          1.04031       -1.77293        0.10947
H          2.08943       -1.96832        1.56960
N          0.64539        2.71962       -0.99485
H          1.30632        1.94866       -1.11000
H          0.88760        3.19282       -0.12868
H          0.77491        3.37240       -1.76111
N         -3.69007       -1.35396       -1.14321
H         -4.14331       -0.45390       -1.28053
C         -4.37469       -2.10454       -0.07898
H         -5.43162       -2.29239       -0.29714
H         -3.86832       -3.06165        0.06412
H         -4.29531       -1.53101        0.84613
H         -3.72894       -1.84949       -2.02847
