32
1sa1msa1a1eda_314.log	Energy: -1011210.9997301
S         -1.67583       -1.00039       -0.45288
O         -0.65558       -0.28069       -1.21691
O         -2.88562       -1.41977       -1.12132
O         -1.02148       -2.28436        0.17088
O         -2.03304       -0.09679        0.76981
H         -0.07783       -2.10314        0.45248
H         -3.06680       -0.19129        1.01493
S          2.55373       -1.04934        0.13358
O          3.71575       -1.85682       -0.15329
O          1.42466       -1.66044        0.85691
O          2.00665       -0.47940       -1.24602
H          1.02068       -0.37833       -1.22712
C          3.01923        0.41266        1.01586
H          3.41160        0.08778        1.98075
H          3.79420        0.91467        0.43574
H          2.11842        1.03262        1.13131
N         -4.54522       -0.35802        1.19402
H         -4.82085       -0.90107        2.00630
H         -4.81828       -0.87005        0.35711
H         -5.05211        0.52174        1.20929
H         -0.48532        4.09231        0.97650
H          1.26957        3.88886        1.16535
H          0.68828        4.38133       -1.14116
H          1.40421        2.76687       -1.01650
H         -0.75442        3.12290       -2.37014
H         -0.74298        1.84297       -1.36676
H          0.12081        2.14626        2.32268
H         -0.62093        1.64219        0.97104
C          0.36520        3.43423        0.74286
C          0.51149        3.36562       -0.77178
N          0.22405        2.09285        1.31427
N         -0.71037        2.85802       -1.39329
