35
1sa1msa1ma1eda_147.log	Energy: -1035886.1376309
S          1.76353        0.26569       -0.39503
O          2.76622        0.75134       -1.33731
O          0.38924        0.12519       -0.97471
O          2.14995       -1.21432        0.02218
O          1.69027        1.07214        0.85654
H          3.17671       -1.30218       -0.00735
H          0.17334        1.48768        1.22034
S         -2.38297       -1.42091        0.07079
O         -3.36656       -0.81445       -0.82120
O         -2.01489       -0.64388        1.26102
O         -1.10343       -1.85634       -0.71009
H         -0.42930       -1.07097       -0.82486
C         -2.97596       -3.00991        0.59241
H         -3.90700       -2.83958        1.13347
H         -3.15179       -3.61456       -0.29701
H         -2.22395       -3.46325        1.23703
N          4.76969       -1.14542       -0.14821
H          5.33093       -1.98763       -0.21789
C          5.25646       -0.26167        0.91966
H          6.29939        0.04714        0.78431
H          4.62432        0.62864        0.94610
H          5.15971       -0.77296        1.88010
H          4.80659       -0.66455       -1.04412
H         -1.34808        3.86877        0.72638
H         -0.00818        3.14436       -0.19686
H         -2.06357        3.18891       -1.57223
H         -1.58728        1.53223       -1.22062
H         -3.92853        2.90502       -0.21311
H         -3.66500        1.28887       -0.44958
H         -0.86243        2.31586        2.25671
H         -1.49239        1.16574        1.25181
C         -0.98294        2.95275        0.25657
C         -1.98974        2.44367       -0.76986
N         -0.78785        1.92171        1.32306
N         -3.25694        2.15507       -0.11328
