39
1sa1msa1dma1tma_115.log	Energy: -1050468.5020940
S          0.08953       -0.91567       -0.45280
O          0.33768       -1.86471        0.63465
O         -0.51051        0.36746        0.02787
O          1.28556       -0.66105       -1.28939
O         -0.95500       -1.54355       -1.47729
H         -1.85199       -1.54708       -1.06008
S         -3.79737        0.06457        0.28818
O         -5.10406        0.15018        0.89698
O         -3.36735       -1.21530       -0.28867
O         -2.73451        0.52837        1.36653
H         -1.81277        0.41748        0.98094
C         -3.63155        1.30070       -0.98373
H         -4.31919        1.03315       -1.78669
H         -3.89330        2.26717       -0.55354
H         -2.59744        1.28890       -1.33288
N          2.09967        2.13720       -0.02136
C          2.35460        2.44607       -1.42255
C          2.10033        3.32536        0.81966
H          1.18988        1.68279        0.04264
H          3.38029        2.81770       -1.54219
H          2.23512        1.53570       -2.01465
H          1.67481        3.21440       -1.82708
H          3.10183        3.77121        0.83195
H          1.39428        4.10139        0.47964
H          1.83900        3.05528        1.84727
N          3.40102       -0.87237        0.36159
C          3.57741       -2.33747        0.19825
H          2.64544       -2.82247        0.49095
H          3.78256       -2.54895       -0.85133
H          4.40803       -2.67144        0.82396
C          4.56615       -0.09660       -0.12199
H          4.73470       -0.33228       -1.17350
H          4.32260        0.96085       -0.01256
H          5.44661       -0.36275        0.46767
C          3.04501       -0.51649        1.76009
H          2.87255        0.55914        1.79150
H          2.13094       -1.05002        2.02250
H          3.86923       -0.80275        2.41783
H          2.58126       -0.62406       -0.25381
