33
1sa1msa1a1tma_81.log	Energy: -1001133.4799933
S          1.80021       -0.10949       -0.32265
O          0.73707       -0.14224       -1.32272
O          2.84281        0.88224       -0.43443
O          1.15173        0.08466        1.10525
O          2.41482       -1.54510       -0.27638
H          0.32265       -0.46010        1.17788
H          3.36632       -1.50415        0.15981
S         -2.08097       -1.66555        0.13533
O         -3.25736       -0.84004        0.28939
O         -0.97867       -1.49972        1.09630
O         -1.49303       -1.54012       -1.33032
H         -0.64860       -1.00599       -1.34169
C         -2.55401       -3.37571        0.13631
H         -3.00669       -3.57751        1.10753
H         -3.27947       -3.52444       -0.66347
H         -1.66277       -3.98265       -0.01743
N          4.78124       -1.24197        0.75181
H          4.84986       -1.39255        1.75353
H          4.92532       -0.25053        0.57078
H          5.52945       -1.75908        0.30101
N         -1.19371        3.44948       -0.28287
C         -1.78109        2.12824       -0.15576
H         -2.86632        2.20371       -0.04872
H         -1.56741        1.54173       -1.05374
H         -1.39180        1.57631        0.72245
C          0.24143        3.36576       -0.48830
H          0.45643        2.76993       -1.37945
H          0.65528        4.36774       -0.63882
H          0.76614        2.90116        0.36847
C         -1.50926        4.27315        0.86780
H         -1.09521        5.27701        0.73061
H         -2.59431        4.36309        0.97713
H         -1.10084        3.85837        1.81167
