35
1sa1msa1ma1eda_151.log	Energy: -1035887.3097182
S          0.09622        1.29800        0.70235
O          0.05729        0.58619       -0.63926
O          1.25528        2.17097        0.80660
O         -1.22080        1.86961        1.00551
O          0.24628        0.11646        1.77914
H          1.06592       -0.39007        1.56429
S          3.24511       -0.82379       -0.35508
O          4.18027       -1.79896       -0.86950
O          2.43860       -1.17684        0.82148
O          2.27205       -0.42533       -1.53854
H          1.41735       -0.01410       -1.19227
C          4.09622        0.69471        0.00476
H          4.79985        0.48051        0.81018
H          4.62433        1.00421       -0.89699
H          3.35570        1.43559        0.31469
N         -2.59067        0.83157       -1.26122
H         -2.71769        1.21826       -0.31671
H         -1.56914        0.62505       -1.27791
C         -2.97693        1.79538       -2.30842
H         -2.77799        1.36061       -3.28781
H         -4.03918        2.02352       -2.21792
H         -2.39415        2.70822       -2.18667
H         -3.13611       -0.06917       -1.29282
H         -4.17269       -2.92883        0.72662
H         -2.85736       -3.10063       -0.44037
H         -2.09562       -2.19265        1.76038
H         -1.69631       -1.16234        0.40517
H         -3.82958       -0.65985        2.33741
H         -2.58323        0.30465        1.89455
H         -4.63396       -2.07577       -1.55999
H         -4.85977       -0.97088       -0.37407
C         -3.45744       -2.36819        0.10723
C         -2.53637       -1.53662        0.99717
N         -4.15258       -1.50874       -0.86946
N         -3.24909       -0.38458        1.55155
