30
1sa1msa1a1dma_128.log	Energy: -976476.7941527
S          1.69687       -0.44884       -0.21366
O          2.47027        0.76974       -0.35481
O          0.66972       -0.75965       -1.20272
O          2.67463       -1.66252       -0.16994
O          1.05487       -0.48053        1.22479
H          3.64144       -1.33863        0.05099
H          0.06430       -0.55795        1.17774
S         -2.57929       -0.54824        0.16108
O         -3.33346        0.65351        0.45948
O         -1.55158       -0.99244        1.11174
O         -1.94033       -0.44628       -1.28241
H         -0.94164       -0.45337       -1.23386
C         -3.71992       -1.88799       -0.07324
H         -4.24027       -2.03154        0.87415
H         -4.42031       -1.60194       -0.85767
H         -3.15692       -2.77885       -0.34944
N          5.03553       -0.68737        0.33009
H          5.77387       -0.97765       -0.30286
H          5.37265       -0.79036        1.28190
H          4.83846        0.29756        0.16459
N         -0.58594        2.06256        0.05546
C         -0.23622        2.64779       -1.23066
C          0.09476        2.70828        1.16810
H         -1.58970        2.12873        0.19446
H          0.82827        2.48143       -1.42174
H         -0.80501        2.15461       -2.02405
H         -0.43048        3.73328       -1.28535
H          1.17198        2.54106        1.07412
H         -0.08258        3.79704        1.21637
H         -0.23711        2.26036        2.10886
