27
1sa1msa1a1ma_179.log	Energy: -951821.1977878
S          1.34210       -1.29062       -0.12032
O          0.51909       -2.48720       -0.20831
O          2.80164       -1.47828       -0.28042
O          0.98400       -0.37091       -1.42787
O          1.03048       -0.42147        1.04770
H          0.02045       -0.19811       -1.41836
H          2.83097        0.53760        1.80982
S         -2.67557        0.10953       -0.04751
O         -1.68727        0.34240       -1.08938
O         -4.05945       -0.13638       -0.41091
O         -2.66524        1.43756        0.89456
H         -3.57914        1.74737        0.97077
C         -2.07841       -1.11507        1.08039
H         -1.91874       -2.03080        0.50813
H         -1.11744       -0.77421        1.47439
H         -2.83155       -1.24910        1.85654
N          3.55742        0.69105        1.10633
H          4.45510        0.92259        1.51844
H          3.17658        1.44061        0.41567
H          3.56680       -0.20998        0.56351
N          2.25500        2.24815       -0.70425
H          2.68386        2.95665       -1.29149
C          1.04316        2.77157       -0.05103
H          0.30543        3.15698       -0.76260
H          0.58183        1.95766        0.51258
H          1.31677        3.57199        0.64205
H          1.98324        1.46905       -1.30784
