29
1sa1msa1tma_45.log	Energy: -965630.2935333
S          0.49539       -1.29916       -0.04729
O          1.62551       -2.04112       -0.52817
O         -0.80176       -1.93249        0.12004
O          0.81596       -0.69596        1.40365
O          0.35439       -0.02104       -0.94809
H          1.73520       -0.37833        1.42381
H         -0.49745        0.46257       -0.73877
S         -3.22746        0.51454       -0.15996
O         -3.88980        0.23770       -1.41428
O         -1.88621        1.12483       -0.20691
O         -3.14900       -0.78407        0.75297
H         -2.31508       -1.28635        0.56153
C         -4.25521        1.52428        0.87119
H         -4.39316        2.47009        0.34650
H         -5.20916        1.01275        0.99870
H         -3.75229        1.67355        1.82560
N          4.39858        1.15862        0.03636
C          4.51392        0.09050        1.00378
H          5.42285       -0.48894        0.81935
H          4.57135        0.50279        2.01556
H          3.66784       -0.63092        0.95564
C          3.27454        2.02595        0.32516
H          3.37074        2.44071        1.33324
H          3.25539        2.85856       -0.38359
H          2.29668        1.50874        0.24529
C          4.33753        0.63916       -1.32073
H          4.30869        1.46919       -2.03220
H          5.23261        0.04559       -1.52753
H          3.45146        0.00144       -1.49179
