41
1sa1msa1tma1eda_222.log	Energy: -1085193.8958759
S          2.02248       -1.10831       -0.33711
O          3.19946       -1.82415       -0.80872
O          0.72302       -1.77053       -0.55976
O          2.15927       -0.65055        1.08415
O          2.00855        0.24313       -1.21509
H          3.57654       -0.31485        1.45525
H          1.15516        0.71500       -1.05372
S         -1.68757        0.72866       -0.42676
O         -2.53771        0.71837       -1.60415
O         -0.36116        1.35518       -0.55524
O         -1.51382       -0.72790        0.15300
H         -0.62927       -1.14662       -0.11957
C         -2.55038        1.49662        0.91441
H         -2.72439        2.53303        0.62158
H         -3.50044        0.95901        1.04123
H         -1.92067        1.44169        1.80198
H          6.55852       -0.28036        0.98790
H          5.31320       -1.26987        0.15304
H          6.06824        0.72783       -1.21749
H          4.33721        0.69693       -0.88469
H          6.28595        2.51615        0.28863
H          4.73329        2.78511       -0.15588
H          4.85379       -0.57769        2.56079
H          4.63960        0.95586        1.90912
C          5.53883       -0.29759        0.59205
C          5.31971        0.82362       -0.42323
N          4.60144       -0.05743        1.72450
N          5.35629        2.11253        0.27407
N         -5.36862       -0.11364        0.52361
C         -6.33957       -0.32277        1.58221
H         -5.93125       -1.00859        2.33066
H         -6.56539        0.62847        2.07447
H         -7.28888       -0.75036        1.20542
C         -5.85939        0.83315       -0.46558
H         -6.08532        1.78940        0.01810
H         -5.08888        1.00016       -1.22331
H         -6.77818        0.47620       -0.96827
C         -4.98774       -1.37179       -0.10255
H         -4.23757       -1.18568       -0.87447
H         -4.54999       -2.03980        0.64448
H         -5.85331       -1.88249       -0.56594
