33
1sa1msa1a1tma_31.log	Energy: -1001156.2591016
S         -1.87265        0.95134       -0.06060
O         -3.08005        1.69387       -0.36688
O         -0.73503        1.64453        0.51627
O         -2.22538       -0.23842        0.91661
O         -1.44369        0.23213       -1.38459
H         -3.18614       -0.54669        0.71806
H         -0.58468       -0.33255       -1.27262
S          1.22662       -1.81858       -0.03019
O          2.44742       -2.56299       -0.33338
O          0.66095       -1.13374       -1.24897
O          1.36181       -0.83100        1.08153
H          1.68862        0.66755        0.47308
C         -0.02290       -2.96752        0.51234
H         -0.19665       -3.68486       -0.29023
H          0.35368       -3.47061        1.40327
H         -0.92363       -2.39670        0.74316
N         -4.72439       -0.79795        0.27443
H         -4.93049        0.10707       -0.14433
H         -5.38894       -0.96530        1.02249
H         -4.85646       -1.51103       -0.43541
N          2.29355        1.46834        0.13634
C          2.18761        2.55223        1.14126
H          1.14725        2.87055        1.19284
H          2.49749        2.15759        2.10941
H          2.83655        3.38039        0.84634
C          3.66093        0.89275        0.07483
H          3.92109        0.50614        1.05968
H          3.66029        0.06460       -0.63486
H          4.36449        1.66800       -0.23676
C          1.82750        1.89836       -1.20640
H          1.78443        1.01865       -1.84940
H          0.83022        2.32196       -1.10373
H          2.52811        2.63851       -1.60069
