30
1sa1msa2ma_53.log	Energy: -976494.0277402
S         -1.40921        0.56007        0.57985
O         -2.61713        0.50084        1.39389
O         -1.38022        1.68682       -0.39300
O         -0.12690        0.55806        1.35272
O         -1.34290       -0.78634       -0.27276
H         -2.29771       -1.19846       -0.32913
S          2.52305       -1.14086       -0.06291
O          3.80799       -1.77287        0.13668
O          2.50364        0.21846       -0.63423
O          1.76597       -1.13726        1.31442
H          0.96126       -0.50971        1.32351
C          1.50254       -2.15980       -1.10057
H          1.97344       -2.19258       -2.08360
H          1.46734       -3.15375       -0.65454
H          0.50766       -1.71167       -1.14253
N         -3.80621       -1.62470       -0.27019
H         -4.02800       -2.60504       -0.41016
C         -4.60137       -0.76358       -1.15673
H         -5.68132       -0.89250       -1.02503
H         -4.34347        0.27690       -0.94894
H         -4.34334       -0.97913       -2.19602
H         -3.99770       -1.39213        0.70210
N          1.13918        2.54731       -0.11331
H          1.66692        1.66650       -0.28417
H          0.12682        2.31821       -0.32395
C          1.66562        3.67551       -0.90506
H          1.09548        4.57680       -0.68002
H          2.71874        3.83136       -0.67147
H          1.56060        3.43461       -1.96226
H          1.17679        2.71057        0.89200
