30
1sa1msa2ma_44.log	Energy: -976492.4251312
S         -1.46868        0.63957       -0.56356
O         -1.04746       -0.77644       -0.84307
O         -1.23255        0.98007        0.86203
O         -0.86223        1.61696       -1.48039
O         -3.01499        0.65526       -0.83043
H         -3.42272       -0.22489       -0.45315
S          2.31313       -1.06169        0.08948
O          1.86834       -1.41213        1.42735
O          2.68379        0.35159       -0.12661
O          1.30815       -1.52494       -1.00673
H          0.32285       -1.16363       -0.89867
C          3.72097       -2.04343       -0.36587
H          4.52987       -1.76813        0.31130
H          3.45680       -3.09365       -0.24579
H          3.98208       -1.81716       -1.39904
N         -3.76185       -1.63910        0.15794
H         -4.66674       -2.03801       -0.06936
C         -3.53413       -1.61445        1.61092
H         -3.57348       -2.60856        2.06989
H         -2.55525       -1.16933        1.80085
H         -4.28866       -0.97761        2.07785
H         -3.04712       -2.19928       -0.30102
N          0.98296        2.46960        0.38026
H          0.22605        2.03420        0.94712
H          1.70925        1.73521        0.25656
C          1.51275        3.72986        0.92954
H          2.27111        4.12678        0.25489
H          0.70080        4.44928        1.03361
H          1.95888        3.53626        1.90470
H          0.51520        2.56405       -0.53657
