40
1sa1msa2eda_274.log	Energy: -1095272.9478716
S         -0.32021       -0.18227        1.39284
O         -1.57355       -0.74054        1.92522
O          0.88184       -0.42591        2.18928
O         -0.01503       -0.94651        0.00966
O         -0.46580        1.26282        1.02896
H         -0.81803       -0.88790       -0.56421
H          1.00616        1.91205        1.22368
S         -3.62053       -0.15627       -0.80458
O         -4.80667       -0.40385       -1.59026
O         -2.31929       -0.57589       -1.34472
O         -3.83552       -0.83164        0.60887
H         -2.98233       -0.83444        1.13751
C         -3.50264        1.57611       -0.41600
H         -3.39281        2.10532       -1.36346
H         -4.42361        1.87119        0.08651
H         -2.62532        1.72829        0.21747
H          3.88104        1.63571        0.46567
H          2.65052        0.35640        0.47481
H          2.98072        1.32311       -1.82025
H          1.33110        1.59754       -1.22602
H          3.43097        3.60678       -1.46591
H          1.84367        3.72668       -1.81835
H          2.32762        2.01639        2.25232
H          2.11559        3.18445        1.04386
C          2.82274        1.41814        0.29892
C          2.38151        1.87073       -1.08503
N          2.02874        2.19302        1.29549
N          2.50351        3.33360       -1.15795
H          2.08435       -0.95303       -1.42735
H          2.76159       -2.05853       -2.61150
H          1.88863       -3.27237       -0.64331
H          3.64492       -3.48281       -0.76419
H          2.22566       -1.80239        1.16187
H          3.41955       -2.88049        1.41760
H          4.49512       -0.86049       -0.62597
H          4.88885       -1.38140       -2.11884
C          2.91839       -1.64120       -1.61156
C          2.85300       -2.75166       -0.56002
N          4.17506       -0.88688       -1.59357
N          3.08584       -2.17886        0.76776
