38
1sa1msa1dma1eda_218.log	Energy: -1060546.8992835
S         -0.26210       -1.55345       -0.12322
O         -0.45309       -0.54146        0.93038
O          0.96833       -2.35578        0.05668
O         -1.47242       -2.35452       -0.37810
O         -0.06918       -0.73503       -1.50589
H          0.82084       -0.31077       -1.48592
S          3.21113        0.27093        0.09792
O          2.93701        1.37942        0.99406
O          2.47442        0.21481       -1.17109
O          3.06135       -1.10489        0.84675
H          2.22030       -1.61029        0.55920
C          4.94849        0.24837       -0.27056
H          5.18077        1.18906       -0.77049
H          5.49183        0.16774        0.67078
H          5.15421       -0.60191       -0.91967
N         -3.45734       -0.57843        0.27376
C         -4.75980       -0.89993       -0.33331
C         -3.50325       -0.30351        1.72303
H         -2.78064       -1.35416        0.08682
H         -5.44379       -0.05926       -0.19922
H         -4.61299       -1.08738       -1.39763
H         -5.17916       -1.79162        0.13607
H         -4.10841        0.58775        1.90310
H         -3.94011       -1.15800        2.24348
H         -2.47906       -0.14848        2.06300
H         -3.03310        0.26620       -0.24724
H         -1.87442        3.54817       -1.36615
H         -3.27939        3.15586       -0.34959
H         -1.29060        3.83700        0.97952
H         -1.80360        2.19635        1.36904
H          0.72561        2.91231        0.53216
H          0.13030        1.39130        0.57342
H         -2.77381        1.50898       -2.13108
H         -1.39572        1.13487       -1.34859
C         -2.27150        2.83080       -0.63599
C         -1.34891        2.81742        0.58281
N         -2.35070        1.47713       -1.20775
N         -0.03125        2.32519        0.20909
