36
1sa1msa2dma_204.log	Energy: -1025799.5032877
S          0.10574       -0.01191       -0.83960
O         -0.94603        0.44760       -1.75711
O          1.48080        0.09988       -1.32043
O          0.07637        0.94490        0.44970
O         -0.18932       -1.39051       -0.31820
H         -0.84756        0.96382        0.80164
H          1.11718       -1.98402        0.26811
S         -3.65277        0.29439        0.37832
O         -4.98468        0.65167        0.80556
O         -2.51037        0.72303        1.19737
O         -3.46376        0.83808       -1.09565
H         -2.51132        0.74001       -1.38740
C         -3.53132       -1.46974        0.17950
H         -3.69888       -1.91261        1.16216
H         -4.30389       -1.78339       -0.52226
H         -2.52891       -1.70565       -0.18567
N          2.06506       -2.26219        0.69875
C          2.45397       -1.17986        1.63942
C          3.04630       -2.48127       -0.39439
H          1.91948       -3.12930        1.21396
H          2.54727       -0.25708        1.06715
H          1.66697       -1.06049        2.38365
H          3.40308       -1.42926        2.11597
H          3.09044       -1.56349       -0.98031
H          4.02152       -2.71881        0.03352
H          2.69439       -3.29886       -1.02350
N          3.83193        1.80678       -0.22564
C          3.72329        2.36416        1.10399
C          4.89917        0.84759       -0.38008
H          2.94767        1.44259       -0.56531
H          4.60623        2.97555        1.32529
H          2.84239        3.00716        1.16258
H          3.64702        1.60389        1.90790
H          5.87016        1.34330       -0.26309
H          4.87377        0.01768        0.35782
H          4.86401        0.41472       -1.38387
