29
1sa1msa1tma_17.log	Energy: -965658.6440848
S         -0.52123       -1.14721       -0.12412
O         -1.75803       -1.92020       -0.14797
O          0.60924       -1.70417       -0.88498
O         -0.76008        0.29407       -0.49183
O         -0.09638       -1.12356        1.42086
H          0.78483       -0.68319        1.49403
S          3.09109        0.48488        0.11699
O          4.47811        0.84602        0.29515
O          2.28294        0.17827        1.30467
O          3.04107       -0.74507       -0.87451
H          2.12421       -1.15505       -0.88670
C          2.24633        1.76739       -0.78262
H          2.28166        2.66538       -0.16415
H          2.77582        1.92494       -1.72216
H          1.21440        1.44688       -0.94593
N         -3.29154        0.78098       -0.01016
C         -3.49704        2.24241       -0.11285
H         -2.84237        2.74264        0.60141
H         -3.24426        2.56479       -1.12346
H         -4.54061        2.48200        0.10451
C         -4.08852        0.02992       -1.01162
H         -3.83604        0.39818       -2.00654
H         -3.81725       -1.02290       -0.93552
H         -5.15249        0.18113       -0.81367
C         -3.52964        0.27903        1.36750
H         -3.30215       -0.78687        1.38469
H         -2.85780        0.80046        2.04983
H         -4.57076        0.46386        1.64271
H         -2.25585        0.59276       -0.22732
