38
1sa1msa1dma1eda_315.log	Energy: -1060543.1798278
S         -1.61937       -1.97251       -0.25382
O         -2.78383       -1.43475        0.46524
O         -1.55050       -1.66506       -1.68643
O         -0.35405       -1.66516        0.46508
O         -1.82648       -3.57831       -0.14797
H         -1.36181       -3.98138       -0.89356
S          2.83905       -0.24625        0.26559
O          2.06103        0.26599        1.38796
O          3.35886        0.69620       -0.71143
O          2.00640       -1.35657       -0.49437
H          1.07043       -1.47503       -0.12218
C          4.19909       -1.20870        0.89075
H          3.80703       -1.95137        1.58523
H          4.69702       -1.68359        0.04558
H          4.87520       -0.52040        1.39892
N         -2.14861        1.20653        1.00242
C         -3.22212        2.16378        1.32189
C         -1.02223        1.21897        1.96824
H         -2.52482        0.23889        0.93333
H         -2.79039        3.16450        1.37399
H         -3.98088        2.12282        0.53951
H         -3.67125        1.90493        2.28204
H         -0.51499        2.17978        1.88281
H         -1.42077        1.06317        2.97276
H         -0.33354        0.41358        1.71349
H         -1.80676        1.41335        0.02244
H          0.52430        3.49834       -2.20436
H          1.57534        3.01470       -0.86890
H          0.81205        1.09176       -2.21781
H          0.40697        0.97246       -0.50813
H         -1.54594        1.90289       -2.48979
H         -1.44674        0.37190       -1.92301
H          0.09487        4.48767        0.08669
H         -1.21197        3.88210       -0.66829
C          0.54481        2.98011       -1.23170
C          0.18062        1.51624       -1.42877
N         -0.32788        3.62565       -0.24018
N         -1.25790        1.34897       -1.68744
