28
1sa1msa1eda_157.log	Energy: -975721.8954924
S          0.73054       -0.92047        0.13339
O          1.96059       -1.61263       -0.20982
O         -0.45032       -1.77144        0.36495
O          0.89785        0.09305        1.22723
O          0.41174       -0.01688       -1.17739
H          1.69934        1.25476        0.71470
H         -0.50632        0.33846       -1.09517
S         -3.21673        0.20105       -0.18414
O         -4.01851       -0.41675       -1.21962
O         -2.03690        0.97805       -0.60474
O         -2.77810       -0.83980        0.91299
H         -1.85712       -1.22685        0.72159
C         -4.24371        1.25651        0.80759
H         -4.63475        2.03000        0.14601
H         -5.05540        0.65227        1.21242
H         -3.63678        1.68663        1.60315
H          3.59517        0.00005        1.18287
H          4.95482        1.12510        0.97230
H          4.01015        2.01708       -1.07769
H          2.91342        0.62672       -1.23886
H          2.68088        2.66738        0.88467
H          1.70391        2.49822       -0.44091
H          5.77522       -0.88467        0.18993
H          4.39874       -1.25325       -0.61829
C          4.25721        0.46771        0.44000
C          3.40915        1.28978       -0.52853
N          5.01438       -0.48933       -0.34938
N          2.31577        2.00161        0.20541
