38
1sa1msa1dma1eda_19.log	Energy: -1060565.3077130
S         -2.39866       -1.16986       -0.13727
O         -2.91947       -0.17505       -1.07187
O         -1.81584       -2.36959       -0.77770
O         -1.52334       -0.62037        0.92313
O         -3.66814       -1.71155        0.73262
H         -4.30508       -2.09710        0.11616
S          2.73165        0.63472        0.08132
O          1.59676        0.21680       -0.80642
O          3.39349       -0.51718        0.71348
O          2.28760        1.69739        1.02563
C          3.93200        1.40525       -0.99148
H          4.26317        0.66531       -1.72019
H          3.46090        2.25308       -1.48904
H          4.76769        1.73730       -0.37494
N          0.86769       -2.33162       -0.10138
C          0.99113       -2.56555        1.35602
C          1.80093       -3.13307       -0.91722
H         -0.11855       -2.48831       -0.39505
H          1.98734       -2.25312        1.67128
H          0.22634       -1.96943        1.85302
H          0.82765       -3.62552        1.55894
H          2.82031       -2.86222       -0.63783
H          1.62404       -4.19456       -0.73599
H          1.63163       -2.90395       -1.96941
H          1.06355       -1.32371       -0.30788
H          0.03157        3.27563       -0.72566
H         -0.48479        1.68003       -1.30518
H         -2.28435        3.42605       -1.63497
H         -2.79487        2.10511       -0.58277
H         -2.07756        4.81488        0.27874
H         -3.36307        3.89970        0.71116
H          0.57912        1.82774        0.97266
H         -0.89709        2.54329        1.44718
C         -0.68646        2.46407       -0.57563
C         -2.12380        2.96554       -0.65195
N         -0.44556        1.90889        0.77911
N         -2.37906        3.86664        0.47526
H         -0.87845        0.96376        0.86456
