36
1sa1msa1ma1tma_74.log	Energy: -1025808.8546158
S          1.28479       -1.81995        0.08080
O         -0.03287       -2.47692       -0.10652
O          2.11241       -1.82988       -1.12504
O          1.16970       -0.50713        0.73986
O          2.06291       -2.70143        1.20311
H          2.20970       -3.58566        0.84032
S         -2.53275       -0.02498       -0.07060
O         -2.67040       -0.27913       -1.49933
O         -1.64379        1.07525        0.30711
O         -2.16217       -1.33660        0.70933
H         -1.29574       -1.77261        0.38268
C         -4.13238        0.26148        0.64679
H         -4.52331        1.17329        0.19441
H         -4.77043       -0.59032        0.41361
H         -4.01079        0.38327        1.72261
N          2.01630        2.03551        1.94052
H          2.15095        1.03290        1.82926
C          0.71881        2.26770        2.58284
H          0.63238        1.83461        3.58902
H          0.53400        3.34449        2.65801
H         -0.06939        1.83029        1.96451
H          2.76762        2.37741        2.53066
N          1.12486        1.49324       -1.18973
C          0.47012        0.83674       -2.35387
H          0.88756       -0.16532       -2.46256
H         -0.60299        0.77402       -2.17403
H          0.67583        1.43176       -3.24652
C          0.59400        2.85738       -0.94464
H         -0.48084        2.77973       -0.78766
H          1.08101        3.24310       -0.04817
H          0.82028        3.47908       -1.81406
C          2.60493        1.49487       -1.33150
H          3.02273        1.95046       -0.43378
H          2.93819        0.46042       -1.42595
H          2.86940        2.06900       -2.22246
H          0.92386        0.90524       -0.35460
