36
1sa1msa2dma_125.log	Energy: -1025810.3316287
S          0.85927        1.91845        0.13211
O         -0.47354        2.09295        0.78128
O          1.95419        1.98805        1.09819
O          0.88839        0.77633       -0.78606
O          1.03079        3.19276       -0.86689
H          1.15952        3.98029       -0.32115
S         -2.73908       -0.33268       -0.16096
O         -2.68371       -0.88026        1.19382
O         -1.79984       -0.91853       -1.11868
O         -2.63043        1.22622       -0.14857
H         -1.71478        1.57384        0.20289
C         -4.38789       -0.49551       -0.79899
H         -4.59196       -1.56350       -0.87916
H         -5.07612       -0.02041       -0.10061
H         -4.42659       -0.01888       -1.77790
N          0.58515       -1.71204        0.44997
C          0.58866       -1.21204        1.84551
C         -0.08513       -3.01740        0.29459
H          0.13448       -1.01185       -0.15905
H          1.05880       -1.96345        2.48337
H          1.15825       -0.28301        1.88756
H         -0.44100       -1.03512        2.15931
H          0.48553       -3.77486        0.83632
H         -1.09667       -2.94543        0.69482
H         -0.13238       -3.26543       -0.76538
H          1.59366       -1.77479        0.10739
N          3.23312       -1.75333       -0.43052
C          3.95131       -0.80620        0.43150
C          3.17216       -1.29706       -1.82462
H          3.70531       -2.65218       -0.39765
H          3.39884        0.13647        0.47619
H          4.01933       -1.21376        1.44396
H          4.96736       -0.59889        0.06631
H          2.60406       -0.36427       -1.86046
H          4.17028       -1.12696       -2.25279
H          2.65161       -2.04341       -2.43119
