40
1sa1msa2eda_117.log	Energy: -1095293.2283877
S         -2.22000       -1.62990        0.09054
O         -3.29794       -0.84210        0.69847
O         -1.40824       -0.90563       -0.90429
O         -1.38071       -2.35332        1.07503
O         -2.94353       -2.77875       -0.80996
H         -3.56180       -3.25719       -0.24126
S          2.14336        1.71684       -0.15044
O          1.34254        2.81065       -0.73458
O          2.73971        0.78158       -1.12496
O          1.35438        0.96569        0.89822
C          3.49487        2.47409        0.73379
H          4.10675        3.01445        0.01090
H          3.08325        3.15807        1.47595
H          4.07101        1.68347        1.21645
H          2.30611       -3.06171        1.33272
H          1.57143       -3.73698       -0.14137
H          3.98781       -3.52987       -0.40881
H          3.17477       -2.44681       -1.53766
H          5.13286       -1.63564        0.02169
H          3.87677       -0.62999       -0.31211
H          0.26093       -1.95568        0.68002
H          1.52975       -0.84683        0.64035
C          2.09901       -2.87609        0.27720
C          3.39760       -2.61026       -0.47148
N          1.16764       -1.72299        0.21645
N          4.13481       -1.50990        0.13360
H          0.91220       -1.47163       -0.74253
H         -2.54221        1.33538        1.50643
H         -1.86960        2.98486        1.57867
H         -4.26069        2.91205        0.80523
H         -3.18706        3.65117       -0.38965
H         -4.03773        0.83514       -0.52926
H         -4.47006        2.05368       -1.56570
H         -0.35914        1.35107        0.53797
H         -1.50668        1.04770       -0.63692
C         -2.25518        2.20804        0.91568
C         -3.44320        2.70307        0.09810
N         -1.16004        1.76588        0.02045
N         -3.75319        1.72596       -0.93158
H         -0.72543        2.52344       -0.51834
