38
1sa1msa1dma1eda_84.log	Energy: -1060561.8246088
S         -2.81572        0.42790        0.00753
O         -2.09866        0.04686       -1.22365
O         -2.95763       -0.70973        0.94485
O         -2.30626        1.67291        0.60260
O         -4.33313        0.82500       -0.41215
H         -4.81241        0.01060       -0.61438
S          2.36977       -0.82029       -0.39539
O          2.35083       -0.03268       -1.63735
O          2.30806       -2.28273       -0.53387
O          1.25369       -0.34028        0.53527
C          3.87543       -0.41483        0.46838
H          4.70914       -0.71879       -0.16560
H          3.88322        0.66356        0.64022
H          3.89142       -0.96312        1.41070
N         -0.70430       -2.28157        0.48965
C         -0.27990       -3.23142        1.53747
C         -0.83322       -2.88850       -0.85647
H         -1.59815       -1.81286        0.74437
H          0.69996       -3.62588        1.26511
H         -0.21445       -2.70077        2.48743
H         -1.01055       -4.03830        1.61366
H          0.14598       -3.25876       -1.16127
H         -1.56429       -3.69773       -0.81004
H         -1.17863       -2.11172       -1.53831
H          0.00988       -1.51829        0.45220
H          1.97671        2.65536       -1.21655
H          0.58199        3.77077       -1.30878
H          1.83672        4.38832        0.63037
H          0.34584        3.62297        1.18769
H          2.39981        2.85716        2.32910
H          1.71414        1.59036        1.54888
H         -0.08659        1.47920       -1.69138
H          0.55437        0.97745       -0.26759
C          1.04946        2.96894       -0.73266
C          1.31260        3.42991        0.69435
N          0.12845        1.80493       -0.74908
N          2.16842        2.49119        1.41252
H         -0.77823        1.98738       -0.27362
