33
1sa1msa1ma1dma_168.log	Energy: -1001149.5435768
S          2.21155       -0.89811        0.08185
O          2.48246       -1.70862       -1.09739
O          2.60708        0.51635        0.03132
O          0.79335       -1.02804        0.55783
O          3.11546       -1.49115        1.29035
H          3.21697       -2.44107        1.14205
S         -2.38708       -0.79564       -0.27515
O         -3.61135       -1.16324       -0.94767
O         -1.96492        0.61242       -0.31503
O         -1.23055       -1.69999       -0.85091
H         -0.35701       -1.50116       -0.37315
C         -2.45843       -1.27066        1.43939
H         -3.21203       -0.64589        1.91993
H         -2.73879       -2.32279        1.48730
H         -1.47429       -1.10703        1.88174
N          0.25173        1.79630        1.86067
H          0.34900        0.80163        1.66612
C         -0.97351        2.06397        2.61039
H         -1.05114        1.52737        3.56786
H         -1.04978        3.13507        2.82049
H         -1.83143        1.79082        1.98939
H          1.07205        2.05644        2.39831
N          0.42836        1.79123       -1.12098
C          0.27526        3.25985       -1.09162
C          0.53966        1.20353       -2.47484
H          1.25798        1.50534       -0.56255
H         -0.62771        3.53551       -1.63841
H          0.19390        3.55176       -0.04489
H          1.14926        3.72099       -1.55374
H         -0.37866        1.40643       -3.02685
H          1.39916        1.64028       -2.98422
H          0.68451        0.12697       -2.38049
H         -0.38411        1.36462       -0.64211
