26
1sa1msa1dma_28.log	Energy: -940996.5056074
S         -0.77149       -0.95391       -0.08453
O          0.32644       -1.74686       -0.65498
O         -0.88973        0.39675       -0.70634
O         -2.07202       -1.64688       -0.02905
O         -0.42988       -0.69512        1.46283
H          0.47848       -0.30858        1.51531
S          2.93380        0.42190        0.09287
O          4.33605        0.70118        0.29583
O          2.04649        0.38039        1.26302
O          2.83012       -0.95232       -0.68396
H          1.88963       -1.29832       -0.67665
C          2.24692        1.59356       -1.05679
H          2.33437        2.57750       -0.59402
H          2.83139        1.54626       -1.97552
H          1.19876        1.33563       -1.22709
N         -3.51715        0.60375       -0.10655
C         -4.64968        0.92385       -0.99578
C         -3.63338        1.11014        1.28040
H         -3.32370       -0.42383       -0.07004
H         -4.75126        2.00662       -1.08104
H         -4.45783        0.49158       -1.97768
H         -5.56450        0.49966       -0.57979
H         -3.71567        2.19763        1.26198
H         -4.51775        0.67516        1.74731
H         -2.73807        0.80909        1.82628
H         -2.60368        0.91526       -0.50241
