38
1sa1msa1dma1eda_170.log	Energy: -1060548.3886396
S         -0.53111       -1.71460        0.05096
O         -0.65993       -0.36231       -0.51072
O          0.19317       -1.59941        1.44009
O         -1.73022       -2.48429        0.23373
O          0.45936       -2.52336       -0.85275
H          1.29364       -1.97978       -1.01888
S          2.97841        0.03484       -0.16303
O          2.86490        1.39119       -0.74799
O          2.60431       -1.05760       -1.09556
O          2.22973       -0.05672        1.13365
H          1.02180       -1.01952        1.36045
C          4.69506       -0.21302        0.22714
H          5.25950       -0.14588       -0.70294
H          5.00167        0.56546        0.92541
H          4.80086       -1.20136        0.67426
N          0.32283        2.20552       -0.03685
C         -0.41929        3.11491       -0.93804
C          0.28130        2.60353        1.38932
H         -0.07091        1.25333       -0.12809
H          0.03668        4.10511       -0.89748
H         -0.36177        2.72078       -1.95277
H         -1.45629        3.15071       -0.59911
H          0.73067        3.59228        1.49377
H         -0.76332        2.62019        1.70450
H          0.85458        1.87191        1.95869
H          1.31202        2.09036       -0.34543
H         -4.74562        1.93465       -0.07340
H         -3.48872        1.85669       -1.31285
H         -5.15535        0.01081       -1.49207
H         -3.49162       -0.55671       -1.32204
H         -5.45262       -1.48608        0.15861
H         -3.95581       -1.34000        0.76780
H         -3.29988        1.15718        1.51788
H         -2.17111        0.69141        0.44930
C         -3.87841        1.35967       -0.41416
C         -4.31661       -0.05926       -0.79018
N         -2.85962        1.41647        0.63916
N         -4.73723       -0.80920        0.39472
