41
1sa1msa1tma1eda_40.log	Energy: -1085220.3036832
S         -1.09654       -1.98445        0.24451
O         -0.27548       -3.15134       -0.09599
O         -2.40154       -2.24648        0.85119
O         -0.19540       -1.19809        1.34546
O         -1.18846       -1.01281       -0.89322
H         -0.27812       -0.21771        1.22670
H         -2.23683        0.10549       -0.51469
S          1.08396        1.87474        0.19832
O          2.22244        1.76158        1.12610
O         -0.22266        1.48530        0.81819
O          1.30752        1.17969       -1.09774
H          1.50452       -0.60356       -0.89045
C          0.91509        3.60923       -0.19643
H          0.70024        4.14796        0.72667
H          1.85767        3.94844       -0.62654
H          0.10761        3.73022       -0.91944
H          3.67044       -2.62816       -0.95863
H          3.20160       -1.52763       -2.28215
H          5.21808       -0.71137       -0.91637
H          3.86532        0.42815       -0.97458
H          4.92076       -0.78313        1.34385
H          3.65081        0.28493        1.22254
H          1.29995       -2.28030       -0.73253
H          2.09337       -1.41396        0.42973
C          3.29474       -1.63088       -1.19927
C          4.18790       -0.54356       -0.58649
N          1.95481       -1.49418       -0.58885
N          4.05581       -0.57752        0.86492
N         -3.10319        0.70612       -0.34077
C         -3.26971        0.87618        1.12630
H         -3.33248       -0.11531        1.57649
H         -2.39702        1.40400        1.51035
H         -4.18334        1.44635        1.31343
C         -2.88467        1.99935       -1.02401
H         -2.01661        2.47165       -0.56501
H         -2.68630        1.81111       -2.07981
H         -3.77373        2.62520       -0.91267
C         -4.22164       -0.07115       -0.92678
H         -4.03045       -0.21314       -1.99080
H         -4.24897       -1.04305       -0.43224
H         -5.15897        0.47035       -0.77793
