23
1sa1msa1ma_44.log	Energy: -916327.9977269
S         -1.89294       -0.80954        0.03832
O         -3.05605       -1.41211        0.64723
O         -0.93300       -0.13760        0.95334
O         -1.07885       -2.05417       -0.60704
O         -2.17996        0.11286       -1.11128
H         -0.24962       -1.71176       -0.98388
H         -1.42836        1.41396       -0.89432
S          2.11742       -0.05888       -0.04663
O          1.51392       -0.85616       -1.10866
O          1.79140        1.35799        0.04159
O          3.71973       -0.16337       -0.25097
H          3.89049       -0.58596       -1.10588
C          1.93146       -0.82778        1.53474
H          0.86028       -0.77605        1.75539
H          2.27658       -1.85770        1.44714
H          2.52847       -0.26286        2.25077
N         -0.87731        2.30163       -0.59981
H          0.06575        1.97664       -0.34237
C         -1.54579        2.93623        0.56039
H         -0.99111        3.82047        0.87553
H         -2.56318        3.20693        0.27880
H         -1.57257        2.19438        1.35776
H         -0.79893        2.93497       -1.39196
