38
1sa1msa1dma1eda_348.log	Energy: -1060536.8619935
S         -0.84535       -0.13512       -1.25924
O          0.51760        0.18869       -1.72694
O         -1.82013       -0.51095       -2.27862
O         -0.72126       -1.44557       -0.33643
O         -1.37384        0.94198       -0.36279
H          0.07822       -1.37138        0.24532
H         -2.93228        0.77845       -0.43032
S          2.87333       -1.24588        0.44863
O          3.60791       -2.46426        0.70666
O          1.53674       -1.08458        1.05059
O          2.73248       -1.08846       -1.12132
H          1.90054       -0.59132       -1.37376
C          3.84495        0.15996        0.91711
H          3.98495        0.10121        1.99756
H          4.80264        0.08113        0.40195
H          3.29128        1.06581        0.62908
N          1.65807        2.41987        0.16855
C          1.80124        3.75826       -0.37821
C          0.97687        2.40323        1.45319
H          1.13860        1.84331       -0.48826
H          2.45202        4.35573        0.27086
H          2.26794        3.70413       -1.36535
H          0.84071        4.29391       -0.47639
H          1.59316        2.91872        2.20015
H         -0.01144        2.89196        1.42710
H          0.83935        1.36748        1.77437
H         -5.09364       -1.27234       -0.15470
H         -3.37596       -1.55127       -0.55213
H         -3.82646       -1.90762        1.90797
H         -2.68195       -0.59984        1.60684
H         -5.45559       -0.30203        2.47227
H         -4.12336        0.50548        2.96553
H         -4.23035        0.54010       -1.47547
H         -4.53010        1.06423        0.10800
C         -4.06922       -0.92859        0.01404
C         -3.72918       -0.89547        1.49865
N         -3.95854        0.46588       -0.49718
N         -4.57953        0.10011        2.15738
