32
1sa1msa1a1eda_40.log	Energy: -1011239.1252567
S         -2.86982       -0.14694       -0.13362
O         -2.52587        1.03039       -0.93420
O         -2.81340       -1.42633       -0.87765
O         -2.15255       -0.21807        1.15891
O         -4.41912        0.03251        0.32557
H         -4.95077        0.17932       -0.46859
S          2.36144       -1.02662       -0.12354
O          2.69017        0.10859       -0.99708
O          1.79769       -2.21377       -0.82475
O          1.47584       -0.63148        1.02450
C          3.89130       -1.57806        0.60978
H          4.54473       -1.91438       -0.19552
H          4.33868       -0.73687        1.13963
H          3.67324       -2.39559        1.29685
N         -0.64999       -2.61577        0.26720
H         -1.47103       -2.32870       -0.31688
H         -0.79397       -3.54217        0.65766
H          0.25778       -2.56431       -0.26315
H         -0.59188       -1.92144        1.01944
H         -0.15022        3.65315        0.89554
H          0.83040        2.77277        2.09688
H          2.21233        4.03106        0.33647
H          2.56599        2.30352        0.45133
H          1.62068        3.63658       -1.82547
H          1.90862        2.01573       -1.62589
H         -0.96391        1.35053        1.12305
H         -0.32614        1.64839       -0.36871
C          0.56828        2.84270        1.03881
C          1.80424        3.03195        0.15293
N         -0.09212        1.58383        0.63150
N          1.43973        2.83142       -1.24327
H          0.54115        0.75886        0.76238
