33
1sa1msa1ma1dma_209.log	Energy: -1001136.4040117
S          2.31135        0.16335       -0.50724
O          1.61059       -1.03224       -1.00946
O          3.49605        0.54635       -1.30052
O          1.32157        1.39924       -0.67336
O          2.64177        0.05917        0.94484
H          0.42180        1.14040       -0.35026
H          4.18608        0.59565        1.17844
S         -1.69161       -0.79979       -0.02896
O         -2.50551       -0.88781       -1.22781
O         -1.03585        0.48913        0.24959
O         -0.59764       -1.94189       -0.00034
H          0.27537       -1.61855       -0.39147
C         -2.65979       -1.24726        1.38146
H         -3.48067       -0.51732        1.42615
H         -3.04090       -2.25582        1.21880
H         -2.02178       -1.20192        2.26353
N          5.13563        0.83578        0.77111
H          4.83699        0.96596       -0.22200
C          6.07532       -0.29923        0.90397
H          7.00542       -0.07351        0.38311
H          6.26997       -0.48868        1.95910
H          5.60392       -1.17300        0.45520
H          5.49555        1.70362        1.15981
N         -5.02936        0.92575        0.74623
C         -5.73265        0.11668       -0.24213
C         -4.32791        2.05410        0.14466
H         -5.68790        1.26675        1.43824
H         -4.99915       -0.33242       -0.91903
H         -6.27321       -0.69152        0.25942
H         -6.45002        0.69434       -0.84944
H         -3.56306        1.67824       -0.54077
H         -4.99254        2.72584       -0.42487
H         -3.82322        2.63288        0.92256
