28
1sa1msa1eda_142.log	Energy: -975721.8237116
S         -1.44107        1.75845        0.05201
O         -0.81583        0.89898       -0.99682
O         -2.28690        0.97408        0.95944
O         -0.50776        2.68129        0.69639
O         -2.44197        2.68425       -0.84933
H         -2.66933        3.45913       -0.31867
S          2.96401       -0.34916        0.12170
O          4.15862       -0.29983        0.94295
O          1.93302       -1.33769        0.41375
O          3.43596       -0.64843       -1.40463
H          4.40357       -0.63147       -1.42917
C          2.22130        1.24757       -0.03657
H          1.79422        1.51471        0.93158
H          2.99723        1.95475       -0.32854
H          1.41574        1.18957       -0.77206
H         -1.19293       -2.95901        1.26127
H         -1.42737       -1.21507        1.59040
H         -3.62785       -2.39618        1.31357
H         -3.35668       -1.11969        0.12634
H         -3.23679       -4.00431       -0.37636
H         -3.93644       -2.82819       -1.27181
H          0.24187       -1.78956       -0.18787
H         -1.09820       -2.29785       -1.10344
C         -1.56556       -2.01217        0.86001
C         -3.02720       -2.11380        0.44055
N         -0.76763       -1.68525       -0.34944
N         -3.13876       -3.04385       -0.68671
H         -0.90172       -0.67262       -0.63944
