33
1sa1msa1ma1dma_204.log	Energy: -1001136.3259621
S         -2.36972       -0.25364       -0.49106
O         -1.25806        0.50482       -1.09328
O         -3.60661       -0.25146       -1.29606
O         -1.93504       -1.78455       -0.45485
O         -2.63795        0.15988        0.91831
H         -1.01286       -1.84887       -0.10082
H         -4.26409        0.32666        1.12156
S          1.68661       -0.79686        0.22302
O          2.59717       -1.20949       -0.82929
O          0.56487       -1.69338        0.54490
O          1.11369        0.64833       -0.06946
H          0.18658        0.60664       -0.46882
C          2.60114       -0.47219        1.70248
H          3.05039       -1.41969        2.00365
H          3.37614        0.26769        1.45823
H          1.90567       -0.11211        2.45997
N         -5.22933        0.44068        0.69517
H         -5.01919        0.04667       -0.24849
C         -5.60038        1.87009        0.60186
H         -6.53900        1.97463        0.05841
H         -5.69639        2.28857        1.60327
H         -4.80295        2.38303        0.06492
H         -5.92012       -0.12426        1.18245
N          4.99275        1.30904        0.35766
C          4.34103        1.98741       -0.75711
C          5.77001        0.15277       -0.07124
H          5.59395        1.96187        0.84871
H          3.63451        1.29970       -1.22988
H          3.77553        2.84619       -0.38651
H          5.04987        2.33400       -1.52830
H          5.09002       -0.59059       -0.49925
H          6.53290        0.39491       -0.83044
H          6.26943       -0.29678        0.79217
