42
1sa1msa2tma_53.log	Energy: -1075125.5267269
S         -0.02284        1.77431       -0.88912
O          0.14583        1.75926       -2.32763
O          0.04364        0.35239       -0.31468
O          0.83854        2.65397       -0.10188
O         -1.51396        2.25323       -0.52838
H         -2.16582        1.62001       -0.90297
S         -3.17313       -0.97170       -0.06285
O         -3.29762       -2.32005       -0.57550
O         -3.22283        0.14503       -1.01151
O         -1.86201       -0.82751        0.81592
H         -1.12220       -0.33773        0.29502
C         -4.41403       -0.71253        1.18384
H         -5.38118       -0.80654        0.68882
H         -4.30089       -1.48137        1.94805
H         -4.28700        0.28585        1.60127
N          1.63861        0.36342        1.83284
C          2.96241        0.99971        1.62204
H          3.53853        0.34935        0.96445
H          2.79695        1.96501        1.14320
H          3.45833        1.11798        2.58857
C          0.75796        1.19220        2.69480
H          0.64563        2.16817        2.22229
H         -0.21623        0.70626        2.76418
H          1.20917        1.28123        3.68564
C          1.75853       -1.02713        2.32873
H          0.76137       -1.46598        2.38805
H          2.36545       -1.57906        1.61134
H          2.22609       -1.01797        3.31601
H          1.15502        0.31666        0.89652
N          2.95469       -1.39405       -0.76022
C          4.19620       -2.12709       -0.57132
H          4.99539       -1.43900       -0.27515
H          4.07646       -2.87669        0.21889
H          4.52203       -2.65104       -1.48887
C          1.86484       -2.29707       -1.11226
H          1.72590       -3.04243       -0.32118
H          0.94060       -1.72615       -1.22194
H          2.06078       -2.83681       -2.05626
C          3.11528       -0.36660       -1.78438
H          2.17359        0.16404       -1.93541
H          3.87708        0.35620       -1.47373
H          3.42758       -0.79688       -2.75306
