41
1sa1msa1tma1eda_141.log	Energy: -1085204.8292746
S          0.98493       -0.23861       -0.77011
O         -0.50479       -0.25305       -0.86613
O          1.69002       -0.86748       -1.87970
O          1.40658        1.17622       -0.51483
O          1.29885       -1.05469        0.54735
H          0.05263        1.97343       -0.21351
H          2.25620       -1.45997        0.50365
S         -3.44729       -1.03405        0.27964
O         -3.88659       -0.02713       -0.68298
O         -3.06262       -0.55348        1.60371
O         -2.31215       -1.93234       -0.33971
H         -1.50152       -1.35194       -0.57321
C         -4.70864       -2.27258        0.45658
H         -4.93161       -2.68293       -0.52769
H         -4.34045       -3.04352        1.13282
H         -5.58256       -1.77469        0.87747
H          5.54940       -1.73144       -0.60183
H          4.07217       -1.13023       -1.39719
H          5.36977        0.74610       -0.47581
H          3.80893        0.59843        0.33535
H          6.40283       -0.18273        1.45193
H          5.24613        0.76439        2.11401
H          3.65416       -3.01803        0.10398
H          4.12922       -2.07169        1.37170
C          4.57470       -1.24911       -0.43431
C          4.78318        0.11649        0.20817
N          3.71535       -2.06233        0.44042
N          5.40029       -0.04706        1.52816
N         -0.72551        2.64317        0.06394
C         -1.22989        2.19732        1.38705
H         -1.66098        1.20019        1.29475
H         -0.39289        2.17172        2.08589
H         -1.99174        2.89998        1.73330
C         -0.07942        3.97202        0.13928
H          0.72874        3.92851        0.86992
H          0.33344        4.21848       -0.83934
H         -0.81686        4.72065        0.43768
C         -1.78275        2.59909       -0.97759
H         -1.32273        2.80484       -1.94465
H         -2.23524        1.60811       -0.98989
H         -2.53765        3.35472       -0.74620
