40
1sa1msa2eda_312.log	Energy: -1095258.6639551
S         -0.99797        0.45585       -0.53289
O         -0.10231        0.37101        0.64005
O         -1.73417        1.71720       -0.64898
O         -0.08219        0.39897       -1.83031
O         -1.91845       -0.72662       -0.60547
H          0.58655       -0.32288       -1.73145
H         -3.35735       -0.12846       -0.93487
S          2.37642       -1.92347       -0.08245
O          3.68537       -1.32621        0.08279
O          1.62678       -1.62781       -1.31138
O          1.45124       -1.62241        1.16358
H          0.82602       -0.84917        0.97851
C          2.51809       -3.68674        0.06729
H          3.17914       -4.01838       -0.73393
H          2.95502       -3.90828        1.04081
H          1.52707       -4.12709       -0.03409
H          2.08561        1.68614       -0.71275
H          3.81704        1.44710       -0.54949
H          2.76243        0.93077        1.57055
H          3.71828        2.40648        1.76439
H          0.81267        2.30026        1.44654
H          1.65176        2.88339        2.72165
H          2.48855        4.04500       -0.35097
H          4.09498        3.79330       -0.42374
C          2.98740        2.08819       -0.23526
C          2.82267        1.99218        1.28352
N          3.20055        3.43761       -0.74892
N          1.66748        2.78206        1.71326
H         -5.57774       -1.39576        0.02586
H         -6.06103       -0.60843        1.52715
H         -5.88909        1.18577       -0.00487
H         -4.36532        1.25186        0.91944
H         -4.74719        0.28692       -1.83649
H         -3.66569        1.42816       -1.23865
H         -4.26649       -2.05931        2.04608
H         -3.24486       -1.31587        0.98789
C         -5.22729       -0.71778        0.82680
C         -4.96191        0.65712        0.22531
N         -4.07150       -1.18870        1.56771
N         -4.17213        0.55469       -1.04067
