36
1sa1msa2dma_195.log	Energy: -1025799.0261922
S          1.99649       -0.48729       -0.50307
O          0.73294       -1.23564       -0.63680
O          3.12859       -1.00795       -1.26386
O          1.75017        0.97253       -1.11852
O          2.35107       -0.26398        0.93841
H          0.89734        1.33221       -0.77124
H          3.83589       -0.03588        1.04476
S         -1.85053        0.94674       -0.01026
O         -2.66692        0.96442       -1.21265
O         -0.60856        1.73570       -0.02518
O         -1.50740       -0.53630        0.41455
H         -0.62218       -0.83457        0.01893
C         -2.83204        1.43931        1.37854
H         -3.09769        2.48435        1.21357
H         -3.72618        0.80393        1.37598
H         -2.23478        1.32468        2.28227
N          4.91528        0.10593        1.01338
C          5.21067        1.10175       -0.04785
C          5.54613       -1.21658        0.78148
H          5.19830        0.47386        1.92028
H          4.84489        0.69474       -0.99089
H          4.67364        2.02312        0.17715
H          6.28571        1.28498       -0.09321
H          5.13129       -1.61539       -0.14492
H          6.62922       -1.10159        0.70953
H          5.28717       -1.87781        1.60852
N         -5.10446       -0.56859        0.13846
C         -6.52773       -0.36052       -0.06700
C         -4.76559       -1.96102        0.38982
H         -4.58655       -0.23498       -0.67004
H         -7.06826       -0.59672        0.85661
H         -6.71673        0.68942       -0.30723
H         -6.95251       -0.98454       -0.87283
H         -5.21461       -2.27935        1.33763
H         -5.12191       -2.64822       -0.39726
H         -3.68099       -2.06272        0.47518
