24
1sa1msa2a_24.log	Energy: -927176.1028880
S          1.63929        0.44335        0.18964
O          1.35423       -0.73986        1.00923
O          0.74369        0.51174       -1.01710
O          1.59285        1.74070        0.90461
O          3.11834        0.32685       -0.34577
H          3.35974       -0.65894       -0.45188
S         -2.41127       -0.49938       -0.05554
O         -3.71772       -0.96769       -0.45895
O         -2.26574        0.92925        0.28438
O         -1.39186       -0.86046       -1.19749
H         -0.50799       -0.35448       -1.10641
C         -1.83579       -1.43137        1.34308
H         -2.46819       -1.16160        2.18963
H         -1.94543       -2.48863        1.10136
H         -0.78847       -1.17509        1.52395
N         -0.47753        2.90272       -0.27553
H          0.37256        2.59120        0.28496
H         -0.21543        2.84896       -1.25816
H         -1.22392        2.19186       -0.10203
H         -0.79084        3.83679       -0.02848
N          3.54944       -2.29416       -0.40413
H          2.83881       -2.50386        0.29409
H          4.44443       -2.63297       -0.06810
H          3.31750       -2.79285       -1.25661
