27
1sa1msa1a1ma_37.log	Energy: -951834.3326466
S         -1.89097        0.36090        0.15800
O         -2.20774       -0.44319        1.33307
O         -0.83127       -0.26378       -0.71219
O         -3.18589        0.44782       -0.75286
O         -1.52866        1.77546        0.41556
H         -3.70497       -0.41813       -0.65666
H         -0.14682        2.12642       -0.28473
S          2.31965       -0.82569        0.03664
O          2.44256       -0.18724        1.34027
O          2.37935        0.08219       -1.12471
O          1.04850       -1.72219       -0.05530
H          0.19317       -1.14575       -0.27152
C          3.58422       -2.05582       -0.14779
H          4.54314       -1.54236       -0.07477
H          3.47242       -2.77958        0.65934
H          3.46603       -2.52940       -1.12159
N         -4.39891       -1.87028       -0.17507
H         -5.40116       -1.87629       -0.02086
H         -3.92922       -1.93485        0.72654
H         -4.15368       -2.68832       -0.72222
N          0.81660        2.36805       -0.66932
H          1.25792        1.49091       -1.00636
C          1.65397        2.96435        0.39897
H          2.62582        3.24004       -0.01003
H          1.14687        3.83835        0.80645
H          1.78805        2.21031        1.17459
H          0.69565        2.99718       -1.45963
