41
1sa1msa1tma1eda_86.log	Energy: -1085216.6908539
S         -0.44281        1.60983        0.44736
O         -0.65920        0.64283       -0.82309
O         -0.04990        2.91903       -0.06545
O         -1.75310        1.57019        1.13943
O          0.63575        0.94966        1.24016
H         -2.35886       -0.00588        0.89253
H          2.01331        0.94081        0.26026
S          0.84681       -2.45500       -0.08028
O          1.48842       -3.63619       -0.64482
O         -0.62582       -2.58451        0.13014
O          1.16431       -1.18946       -0.83467
H          0.03692       -0.08772       -0.83865
C          1.52893       -2.19796        1.55413
H          1.24635       -3.05034        2.17296
H          2.61542       -2.14979        1.46503
H          1.12641       -1.26305        1.94859
H         -5.19901       -0.15627        0.56126
H         -5.46727       -0.21938       -1.17931
H         -3.89148       -1.93733       -0.77908
H         -2.91369       -0.58981       -1.41328
H         -3.18749       -1.36222        1.41504
H         -1.82935       -1.55370        0.44166
H         -5.09986        2.05340       -0.52765
H         -3.57749        1.71893       -0.00074
C         -4.72335        0.03994       -0.41907
C         -3.55095       -0.91722       -0.59034
N         -4.31792        1.41843       -0.63115
N         -2.68708       -0.96312        0.62296
N          2.87581        1.25970       -0.25381
C          2.51238        1.46186       -1.68329
H          2.19040        0.50477       -2.09222
H          1.69624        2.18385       -1.72909
H          3.39072        1.83655       -2.21405
C          3.24931        2.54149        0.39635
H          2.40132        3.22240        0.30962
H          3.45424        2.35192        1.45020
H          4.13461        2.94988       -0.09593
C          3.91455        0.21462       -0.09824
H          4.09874        0.05861        0.96557
H          3.53933       -0.70256       -0.55270
H          4.83192        0.54597       -0.58996
