40
1sa1msa2eda_90.log	Energy: -1095294.7731968
S         -3.25265       -0.45249       -0.10312
O         -4.54812       -1.03555        0.18863
O         -3.28632        0.84477       -0.81357
O         -2.25603       -0.44659        0.99418
O         -2.50447       -1.49881       -1.15386
H         -3.14598       -1.74090       -1.83449
S          2.54767        0.48376       -0.35558
O          2.92607       -0.46211        0.71204
O          2.52817        1.90534        0.03002
O          1.23940        0.06559       -0.99345
C          3.76228        0.31924       -1.65315
H          4.72983        0.60446       -1.23928
H          3.77668       -0.71887       -1.98580
H          3.48354        0.98273       -2.47186
H         -0.39550       -3.84683        0.80806
H         -0.38055       -3.16533       -0.83685
H          1.65504       -4.63439       -0.27519
H          2.06575       -3.00331       -0.80856
H          2.83215       -4.13139        1.58429
H          2.86950       -2.51393        1.23584
H         -0.89256       -1.47322        0.88589
H          0.63620       -1.80438        1.54985
C          0.13448       -3.17983        0.12482
C          1.60634       -3.57837        0.00577
N          0.07348       -1.81457        0.69273
N          2.28099       -3.34182        1.27874
H          0.50756       -1.13050        0.03552
H          0.68627        3.15761       -1.00166
H         -0.98674        3.70272       -1.29404
H          0.28616        4.95936        0.54985
H         -1.26788        4.28290        1.06394
H          1.30996        2.93819        1.53890
H          0.28486        3.57290        2.68304
H         -0.14553        1.15630       -0.71834
H         -0.68275        1.71712        0.73462
C         -0.31408        3.23617       -0.57322
C         -0.25426        4.02210        0.74008
N         -0.77923        1.85370       -0.28522
N          0.34178        3.16727        1.75820
H         -1.76365        1.63948       -0.55346
