35
1sa1msa1ma1eda_282.log	Energy: -1035869.1609584
S         -1.37571       -0.56190        0.56834
O         -0.20790       -0.34412        1.44539
O         -2.50290        0.34995        0.84678
O         -0.93059       -0.14806       -0.91325
O         -1.80832       -1.97899        0.50593
H         -0.01533       -0.47651       -1.09229
H         -3.57577       -1.99804        0.24880
S          2.69298       -1.04970       -0.24188
O          3.53065        0.13274       -0.19976
O          1.58611       -1.07706       -1.20989
O          2.12925       -1.40328        1.18961
H          1.20163       -1.02173        1.32094
C          3.70906       -2.47640       -0.52609
H          4.18014       -2.33841       -1.49968
H          4.46067       -2.51837        0.26193
H          3.07493       -3.36203       -0.51799
N         -4.37869       -1.35060        0.07956
H         -5.21506       -1.66132        0.56742
C         -4.58611       -1.14806       -1.37529
H         -5.35459       -0.39151       -1.52926
H         -3.64168       -0.80474       -1.79812
H         -4.88075       -2.08964       -1.83705
H         -3.98069       -0.47968        0.50975
H         -1.09832        2.62619       -0.28166
H         -0.58002        3.48467       -1.72406
H          1.06949        1.78712       -1.18819
H          1.79167        3.37944       -0.93321
H          0.74211        1.68041        1.21418
H          2.30236        2.06674        0.93788
H         -0.18962        4.46331        1.00016
H          0.11343        5.29204       -0.36173
C         -0.34652        3.32692       -0.66453
C          1.03675        2.68277       -0.54641
N         -0.50584        4.59495        0.04258
N          1.35161        2.41090        0.85416
