27
1sa1msa1a1ma_132.log	Energy: -951827.3692933
S         -1.72402       -1.18551       -0.06713
O         -0.83749       -1.26778       -1.26254
O         -1.01390       -1.49108        1.17503
O         -2.52000        0.05257       -0.00835
O         -2.85373       -2.32030       -0.30870
H         -2.40786       -3.16962       -0.43123
S          2.27407       -0.29366        0.11622
O          2.66667       -0.96555        1.33823
O          1.40430        0.89139        0.24783
O          1.65899       -1.28156       -0.92918
H          0.62744       -1.25947       -1.00313
C          3.73604        0.20119       -0.76625
H          4.29387        0.87544       -0.11588
H          4.31868       -0.69563       -0.97683
H          3.43743        0.69913       -1.68793
N         -0.90036        1.53819        1.66925
H         -1.64658        0.95069        1.24229
H         -0.96445        1.52682        2.68205
H          0.00471        1.14150        1.35705
H         -0.98992        2.50469        1.24913
N         -1.15342        3.74021       -0.02817
H         -2.04999        4.21727       -0.03162
C         -1.01998        2.89274       -1.22999
H         -1.10358        3.45418       -2.16717
H         -0.05102        2.38898       -1.19960
H         -1.78805        2.11601       -1.20835
H         -0.44002        4.46271       -0.02281
