28
1sa1msa1eda_165.log	Energy: -975719.9855482
S          1.30768       -1.69298        0.02458
O          2.76620       -1.75525        0.03506
O          0.53879       -2.92186        0.12924
O          0.80686       -0.63980        0.99350
O          0.99164       -1.03572       -1.43656
H          1.87662        0.42768        1.03029
H          0.04118       -0.81961       -1.47834
S         -2.57234        0.10051       -0.12445
O         -1.59393        0.07215       -1.19885
O         -3.98783        0.19023       -0.43145
O         -2.20351        1.42124        0.76403
H         -3.03880        1.84591        1.00737
C         -2.25524       -1.21504        1.01727
H         -2.33405       -2.14872        0.45785
H         -1.23555       -1.09327        1.39134
H         -3.00728       -1.16274        1.80436
H          3.37721        2.37110       -0.69688
H          2.67237        0.79951       -1.18587
H          1.12997        2.73874       -1.70968
H          0.42528        1.55027       -0.61819
H          1.26500        4.24086        0.07618
H          0.02258        3.33854        0.64880
H          3.54298        0.74913        1.09056
H          2.44719        1.97697        1.49159
C          2.56227        1.66160       -0.52656
C          1.19679        2.31959       -0.69925
N          2.64608        1.18078        0.87850
N          0.99408        3.30787        0.36436
