27
1sa1msa1a1ma_159.log	Energy: -951824.3521022
S          1.33528        0.18617        0.67595
O          0.18474        0.74538        1.40045
O          2.54243       -0.03495        1.49719
O          0.94400       -1.29334        0.20411
O          1.65880        0.94755       -0.56538
H          0.05221       -1.27374       -0.23394
H          3.35505        0.61635       -0.93280
S         -2.71107       -0.61580       -0.17360
O         -3.72421       -1.62987        0.01666
O         -1.46334       -0.98245       -0.86555
O         -2.33805       -0.03432        1.25381
H         -1.39282        0.28560        1.29107
C         -3.39933        0.78087       -1.01882
H         -3.65045        0.44791       -2.02696
H         -4.29725        1.08093       -0.47791
H         -2.64242        1.57656       -1.02901
N         -0.87250        2.84472       -0.65263
H         -0.05994        2.31345       -0.95925
H         -0.76993        2.94103        0.35316
H         -0.81336        3.77223       -1.05931
N          4.18501        0.07666       -0.58983
H          5.04655        0.60374       -0.70787
C          4.22645       -1.26745       -1.21796
H          5.02655       -1.85313       -0.76688
H          3.26473       -1.74676       -1.03182
H          4.39002       -1.16175       -2.28975
H          3.91825       -0.00247        0.42135
