32
1sa1msa1a1eda_258.log	Energy: -1011228.6383122
S         -0.78155        1.32902        0.30679
O         -0.35910        0.12057        1.14471
O         -0.50958        1.00737       -1.13317
O         -2.25066        1.51007        0.55208
O         -0.00767        2.53400        0.71925
H         -2.79283        0.17935        1.07834
H          1.20509        2.72356       -0.31181
S          2.73962       -0.97408        0.14080
O          3.78940       -1.91132        0.48251
O          3.15204        0.23117       -0.60729
O          1.98192       -0.56741        1.43725
H          0.99181       -0.19918        1.29090
C          1.49797       -1.78208       -0.84967
H          1.99131       -2.11600       -1.76327
H          1.10790       -2.63081       -0.28821
H          0.71174       -1.05544       -1.06566
N          1.81414        2.53187       -1.16599
H          2.42617        1.71560       -0.94400
H          2.34621        3.33825       -1.47550
H          1.13371        2.21863       -1.86364
H         -4.18919       -2.39851        0.37734
H         -4.98171       -0.80505        0.50662
H         -4.30151       -1.39332       -1.86866
H         -3.58217        0.10902       -1.27594
H         -2.18484       -2.18119       -2.11272
H         -1.57228       -0.74713       -1.54611
H         -3.20001       -1.09362        2.17737
H         -2.09998       -1.30352        0.94057
C         -4.05110       -1.32064        0.25822
C         -3.57812       -0.97941       -1.15864
N         -2.99993       -0.87721        1.20467
N         -2.23162       -1.50361       -1.36428
