41
1sa1msa1tma1eda_81.log	Energy: -1085216.4500032
S         -0.33021       -2.20478       -0.34980
O         -1.46247       -1.60433       -1.05186
O          1.00848       -1.77155       -0.84401
O         -0.39816       -2.17316        1.11976
O         -0.44409       -3.77407       -0.78850
H          0.29477       -4.25097       -0.38907
S          0.13543        1.97405       -0.40409
O          1.54343        2.28839       -0.03199
O         -0.78844        3.11418       -0.46379
O         -0.36062        0.87941        0.50163
C          0.20703        1.25553       -2.03666
H          0.62844        1.99960       -2.71329
H          0.81894        0.35316       -1.99164
H         -0.80460        0.98290       -2.33868
H          3.83351       -0.10107        2.27096
H          3.52253       -1.69420        1.54143
H          5.35250       -0.64904        0.32269
H          3.94950       -0.72884       -0.72903
H          3.59869        1.62701       -0.38321
H          4.88432        1.70171        0.64640
H          1.44554       -0.44503        1.89108
H          1.97149        0.76745        0.88074
C          3.49070       -0.61503        1.36827
C          4.35383       -0.23014        0.15938
N          2.08097       -0.23874        1.12016
N          4.47635        1.18476       -0.12351
H          1.68609       -0.78574        0.31094
N         -2.96581        0.53953        0.58294
C         -3.20699        1.71171        1.45964
H         -2.76582        1.51161        2.43631
H         -2.71631        2.57874        1.01360
H         -4.28293        1.87445        1.55818
C         -3.49471        0.76692       -0.78428
H         -3.05718        1.68984       -1.16929
H         -3.20021       -0.07946       -1.40437
H         -4.58271        0.85777       -0.73646
C         -3.47157       -0.72309        1.17217
H         -3.24976       -1.53399        0.48036
H         -2.94862       -0.90509        2.11084
H         -4.54699       -0.62775        1.34273
H         -1.91005        0.48328        0.49271
