41
1sa1msa1tma1eda_198.log	Energy: -1085203.6215071
S         -1.59988        1.82350       -0.39201
O         -1.09107        3.12536        0.02345
O         -1.03007        1.30078       -1.64279
O         -1.58374        0.81552        0.70949
O         -3.20319        1.97163       -0.64253
H         -3.33687        2.60952       -1.35663
S         -1.07844       -2.38997       -0.10063
O         -1.31020       -3.80578        0.08200
O          0.12403       -1.79652        0.50433
O         -2.34486       -1.61951        0.44051
H         -2.13473       -0.63234        0.53095
C         -1.06009       -1.99348       -1.83263
H         -0.18534       -2.48177       -2.26446
H         -1.97681       -2.38602       -2.27272
H         -0.99913       -0.90631       -1.93828
H          4.09470       -0.26908       -2.54890
H          3.50608       -1.62599       -1.57701
H          1.66267       -0.47312       -2.72817
H          1.48101       -0.40146       -0.97600
H          2.47386        1.80471       -2.63344
H          1.07293        1.73396       -1.79681
H          5.07995       -0.24904       -0.34242
H          4.05656        1.02656       -0.46788
C          3.51664       -0.53306       -1.64658
C          2.08620       -0.03363       -1.81111
N          4.10286        0.01188       -0.42099
N          2.04426        1.42749       -1.79336
N          1.00557        0.34695        2.02638
C          0.09403        0.39223        3.19794
H         -0.77509        0.99153        2.93037
H         -0.21723       -0.62648        3.43150
H          0.62990        0.82920        4.04293
C          2.17001       -0.54874        2.26414
H          1.79666       -1.55915        2.42701
H          2.82355       -0.51721        1.38571
H          2.70436       -0.18667        3.14568
C          1.43721        1.70756        1.60322
H          1.95606        1.63064        0.64479
H          0.55833        2.34159        1.48622
H          2.10386        2.10754        2.37040
H          0.45799       -0.07857        1.25951
