32
1sa1msa1a1eda_110.log	Energy: -1011232.9752623
S          1.78107       -1.05890        0.29340
O          2.92994       -1.47653        1.08769
O          0.63843       -0.50103        1.07701
O          2.25057        0.19245       -0.60058
O          1.27359       -2.08632       -0.64835
H          3.25959        0.15547       -0.71888
H         -0.38717       -1.91120       -0.79321
S         -1.01202        2.31208        0.03945
O         -1.83601        3.45105        0.37963
O         -1.67004        1.15500       -0.59259
O         -0.27179        1.84443        1.34378
H          0.16284        0.92587        1.23778
C          0.31243        2.81969       -1.03164
H         -0.13554        3.11836       -1.98005
H          0.81465        3.66366       -0.55858
H          0.99409        1.97525       -1.15573
N          4.90520       -0.09219       -0.65352
H          4.87841       -0.75315        0.12185
H          5.48637        0.69486       -0.38640
H          5.33390       -0.55027       -1.45051
H         -1.89092       -3.11101        0.61837
H         -1.54049       -1.53031        1.34311
H         -4.02008       -2.00345        1.36065
H         -3.62633       -0.59840        0.36199
H         -4.35630       -3.25076       -0.62982
H         -4.90911       -1.78428       -1.09736
H         -1.95066       -1.94496       -1.52209
H         -1.38464       -0.56189       -0.76984
C         -2.04470       -2.03315        0.51775
C         -3.52559       -1.68567        0.43414
N         -1.38924       -1.59846       -0.73909
N         -4.08791       -2.28396       -0.77898
