36
1sa1msa1ma1tma_53.log	Energy: -1025814.5729025
S          1.18911        0.76072       -0.45682
O          0.85897        0.83736        0.98145
O          1.48621       -0.64264       -0.87762
O          0.16428        1.41490       -1.29588
O          2.52286        1.56681       -0.71406
H          3.32300        0.95371       -0.50009
S         -1.45262       -2.22165       -0.07772
O         -2.32837       -3.37404       -0.12848
O         -2.04025       -0.88745       -0.22217
O         -0.33575       -2.43127       -1.17024
H          0.34669       -1.68219       -1.13915
C         -0.53574       -2.23143        1.45131
H         -1.26550       -2.14801        2.25827
H         -0.00201       -3.17931        1.51964
H          0.14692       -1.37746        1.45506
N          4.34943       -0.23184       -0.13575
H          3.88139       -0.98087       -0.64143
C          4.31101       -0.48980        1.30942
H          4.80446       -1.42541        1.59713
H          4.79188        0.33922        1.83360
H          3.26633       -0.52519        1.62727
H          5.30248       -0.16756       -0.47721
N         -1.95162        2.08836        0.22240
C         -2.16000        1.54107        1.58642
H         -2.57168        0.53850        1.48896
H         -1.18848        1.49091        2.07731
H         -2.84613        2.19798        2.12666
C         -1.40897        3.46841        0.27038
H         -0.48851        3.45220        0.85415
H         -1.17982        3.78762       -0.74569
H         -2.14762        4.13007        0.72847
C         -3.17211        1.99117       -0.61477
H         -2.94357        2.38144       -1.60683
H         -3.44748        0.93968       -0.69056
H         -3.97160        2.57527       -0.15314
H         -1.20806        1.53288       -0.26682
