38
1sa1msa1dma1eda_25.log	Energy: -1060563.0630301
S         -2.58086        1.13866       -0.05011
O         -3.24817        0.44851        1.05304
O         -1.78550        2.32023        0.34503
O         -1.81794        0.24962       -0.95588
O         -3.75708        1.69590       -1.03230
H         -4.36280        2.22518       -0.49631
S          2.00400       -1.53169       -0.21670
O          1.15055       -2.65479       -0.69534
O          1.62613       -1.06111        1.13519
O          2.09791       -0.41290       -1.19569
C          3.64908       -2.21450       -0.10001
H          3.94075       -2.57182       -1.08771
H          4.32457       -1.42932        0.24083
H          3.62498       -3.03594        0.61613
N         -1.41842       -2.23246        0.10445
C         -1.41713       -2.20028        1.58522
C         -2.48063       -3.06719       -0.48775
H         -1.54086       -1.26028       -0.25946
H         -1.36556       -3.22361        1.96207
H         -0.53210       -1.64769        1.90321
H         -2.32388       -1.69962        1.92617
H         -2.35011       -4.10272       -0.16926
H         -3.44995       -2.69035       -0.15773
H         -2.41202       -3.00099       -1.57358
H         -0.47118       -2.52509       -0.23313
H          1.01479        2.97056        1.36096
H          1.35487        1.21758        1.45333
H          3.47920        2.54286        1.60875
H          3.42757        1.50427        0.17527
H          3.05938        4.40934        0.18710
H          4.02985        3.49748       -0.76521
H         -0.17594        2.01282       -0.35024
H          1.20941        2.66096       -1.07747
C          1.50691        2.12686        0.87022
C          2.98854        2.39267        0.63864
N          0.85442        1.93328       -0.44877
N          3.13698        3.51669       -0.28829
H          1.13027        1.00326       -0.83683
