32
1sa1msa1a1eda_249.log	Energy: -1011227.5495832
S          0.01693        1.24022       -0.39194
O          0.59514        1.14654        0.98252
O         -0.20769       -0.12810       -0.94679
O         -1.17289        2.08166       -0.46234
O          1.11074        1.94429       -1.30374
H          1.97638        1.48729       -1.16856
S          3.41698       -0.70793        0.10923
O          4.71720       -1.19747        0.50714
O          3.33981        0.49821       -0.72476
O          2.56305       -0.48065        1.42003
H          1.80362        0.16803        1.25716
C          2.52851       -1.99864       -0.73372
H          3.07153       -2.20974       -1.65583
H          2.51294       -2.87498       -0.08557
H          1.52214       -1.62991       -0.94630
N         -2.24363        1.07579        2.17557
H         -2.39274        2.03735        1.87814
H         -1.22771        0.97128        2.20809
H         -2.60478        0.97691        3.11860
H         -3.35147       -2.21529       -0.93837
H         -2.99294       -2.16630        0.79695
H         -5.45164       -2.41006        0.40036
H         -5.07739       -0.89000        1.21720
H         -5.78372       -1.16158       -1.61042
H         -6.40062       -0.14195       -0.48862
H         -1.87955       -0.38302       -0.60704
H         -3.42434        0.25911       -0.80039
C         -3.48993       -1.63848       -0.01966
C         -4.97369       -1.43001        0.27047
N         -2.84003       -0.32542       -0.19522
N         -5.55569       -0.61145       -0.78940
H         -2.71892        0.18091        0.73223
