35
1sa1msa1ma1eda_16.log	Energy: -1035902.3622522
S         -2.76398        0.31715       -0.22710
O         -2.39947        1.50117       -1.03339
O         -2.89735       -0.92035       -1.00378
O         -1.92621        0.16254        0.98229
O         -4.22801        0.64861        0.39883
H         -4.83549        0.81570       -0.33453
S          2.40394       -1.15782       -0.07266
O          3.07383       -0.05497        0.62797
O          1.26290       -0.68698       -0.93125
O          1.96044       -2.27955        0.80095
C          3.59450       -1.86161       -1.20151
H          3.92143       -1.07816       -1.88543
H          4.43427       -2.23280       -0.61348
H          3.11765       -2.67605       -1.74699
N         -0.74622       -2.27702        0.41791
H          0.25336       -2.40006        0.69950
H         -1.10784       -1.39071        0.82612
C         -1.62451       -3.41365        0.75731
H         -2.62461       -3.19982        0.38097
H         -1.23370       -4.32257        0.29992
H         -1.64829       -3.53090        1.84034
H         -0.73932       -2.09181       -0.58730
H         -0.32650        3.09126        0.92034
H          0.25974        1.49986        1.42037
H          1.92326        3.33514        1.95849
H          2.57614        2.11417        0.85549
H          1.71584        4.81771        0.11436
H          3.09301        4.02607       -0.27888
H         -0.68270        1.79295       -0.91932
H          0.80589        2.55465       -1.23676
C          0.45158        2.34105        0.75476
C          1.84739        2.92422        0.94391
N          0.31905        1.86913       -0.64749
N          2.10114        3.90744       -0.11361
H          0.75785        0.92540       -0.77443
