36
1sa1msa2dma_212.log	Energy: -1025798.6660332
S          2.07745       -0.50668       -0.53660
O          1.23358       -1.70678       -0.67921
O          3.28546       -0.47639       -1.35701
O          1.21700        0.74161       -1.05281
O          2.38240       -0.22051        0.90624
H          0.30863        0.69087       -0.66438
H          3.68464        0.51245        1.00035
S         -1.99102       -0.83001        0.17859
O         -2.83178       -1.12552       -0.96774
O         -1.19095        0.40584        0.12745
O         -1.03274       -2.04189        0.50982
H         -0.13463       -1.93633        0.05507
C         -2.97854       -0.79684        1.64538
H         -3.72483       -0.00498        1.48944
H         -3.45549       -1.77195        1.74788
H         -2.32618       -0.58502        2.49197
N          4.64837        1.02343        0.96989
C          4.55170        2.11870       -0.02746
C          5.68917        0.01626        0.65001
H          4.81253        1.41327        1.89666
H          4.31596        1.66441       -0.99016
H          3.74106        2.78656        0.26387
H          5.49777        2.66131       -0.07278
H          5.41446       -0.44338       -0.30004
H          6.66545        0.50017        0.58397
H          5.69314       -0.74281        1.43223
N         -5.08347        1.41584        0.45324
C         -5.90891        0.51387       -0.34113
C         -4.23771        2.26865       -0.37425
H         -5.67639        1.99358        1.03931
H         -5.25633       -0.17300       -0.88884
H         -6.54950       -0.07863        0.31862
H         -6.54814        1.03668       -1.07277
H         -3.55902        1.64119       -0.95883
H         -4.81030        2.89785       -1.07684
H         -3.62813        2.91534        0.26232
