24
1sa1msa2a_79.log	Energy: -927164.7912204
S         -2.07125       -0.71862        0.06362
O         -1.79020       -0.38998        1.48469
O         -3.42308       -0.34298       -0.36020
O         -0.99181       -0.27270       -0.83201
O         -1.98122       -2.34369       -0.04212
H         -2.72295       -2.71589        0.45326
S          2.55378       -0.03390        0.00943
O          2.01882        1.30988       -0.17934
O          2.45595       -0.65634        1.31717
O          4.13092        0.03788       -0.37422
H          4.63719       -0.24298        0.40186
C          1.94319       -1.09415       -1.26626
H          0.85293       -1.10897       -1.15307
H          2.22460       -0.65799       -2.22486
H          2.38679       -2.07949       -1.12757
N         -0.49575        1.98000        1.08757
H          0.40256        1.77773        0.62597
H         -1.19075        2.33864        0.36364
H         -0.89637        1.07781        1.44272
H         -0.36192        2.64501        1.84289
N         -2.38971        2.51426       -0.90519
H         -1.90723        2.19978       -1.74332
H         -2.87031        3.38047       -1.12439
H         -3.09121        1.79464       -0.71695
