41
1sa1msa1tma1eda_154.log	Energy: -1085206.6132149
S         -0.00169       -2.07275       -0.09994
O         -0.24581       -0.78989       -0.74977
O          0.48768       -1.79581        1.37474
O         -1.07214       -3.03397       -0.01650
O          1.22576       -2.76385       -0.79578
H          1.96225       -2.08714       -0.89639
S          2.92296        0.36338       -0.04329
O          2.31559        1.48029       -0.80709
O          3.06988       -0.89279       -0.81719
O          2.21307        0.15462        1.25868
H          1.17105       -1.05421        1.38133
C          4.57848        0.86929        0.37066
H          5.11597        1.04263       -0.56165
H          4.52013        1.78381        0.96079
H          5.04370        0.06611        0.94176
H         -5.71471        0.18159       -0.05507
H         -4.92176        0.83462       -1.49368
H         -4.25892       -1.49224       -1.07573
H         -2.86168       -0.42190       -0.97425
H         -4.27961       -1.50357        1.34271
H         -2.75544       -1.82330        0.86483
H         -4.86042        2.31875        0.49505
H         -3.84800        1.23333        1.19149
C         -4.74270        0.50754       -0.46336
C         -3.79885       -0.69095       -0.47845
N         -4.15756        1.61361        0.29934
N         -3.46710       -1.09681        0.88764
N         -0.24779        2.14633       -0.09648
C         -0.83517        1.54307        1.13124
H         -1.31605        0.60096        0.87702
H         -0.02791        1.37152        1.84370
H         -1.57616        2.23747        1.52991
C          0.24557        3.51833        0.17175
H          0.92443        3.48407        1.02390
H          0.78737        3.87451       -0.70393
H         -0.60611        4.16655        0.38759
C         -1.19110        2.11152       -1.24705
H         -0.76261        2.69333       -2.06374
H         -1.30111        1.07231       -1.55031
H         -2.15919        2.50201       -0.92459
H          0.60195        1.60528       -0.36799
