36
1sa1msa1ma1tma_10.log	Energy: -1025827.1482864
S         -1.03187        1.72411       -0.34796
O         -0.58759        0.66073       -1.46824
O         -0.57951        3.04991       -0.74076
O         -2.50175        1.51802       -0.31155
O         -0.40874        1.24064        0.92400
H         -2.63212       -0.06580        0.02359
H          1.10910        1.64812        1.21373
S          2.02250       -1.37237       -0.08700
O          0.77720       -2.11021        0.18543
O          2.72535       -0.88284        1.13453
O          1.84492       -0.26420       -1.07784
H          0.35194        0.35102       -1.32987
C          3.15027       -2.52486       -0.85203
H          3.33098       -3.33474       -0.14488
H          2.68482       -2.90343       -1.76224
H          4.07715       -1.99935       -1.08168
N          2.15623        1.76773        1.33497
H          2.33602        2.20840        2.23334
C          2.71298        2.54885        0.20483
H          3.77630        2.72490        0.37029
H          2.56987        1.95669       -0.69828
H          2.17097        3.48965        0.11532
H          2.52361        0.78385        1.34173
N         -2.82465       -1.08055        0.26794
C         -2.10433       -1.38800        1.53205
H         -1.03245       -1.31161        1.34761
H         -2.40649       -0.66203        2.28682
H         -2.36402       -2.40266        1.84440
C         -4.29345       -1.16466        0.42911
H         -4.60120       -0.47274        1.21356
H         -4.76803       -0.87902       -0.51013
H         -4.57115       -2.18685        0.69617
C         -2.33646       -1.92409       -0.85383
H         -2.77215       -1.55321       -1.78173
H         -1.24959       -1.85050       -0.89232
H         -2.63770       -2.95875       -0.67182
