41
1sa1msa1tma1eda_99.log	Energy: -1085210.2292885
S          0.82463        0.53241       -0.19866
O          0.77067        1.64068        0.77084
O          1.14514       -0.77622        0.38116
O         -0.45279        0.48787       -1.01068
O          1.91209        0.88201       -1.28722
H          2.83912        0.98828       -0.82684
S         -2.52306       -2.00698        0.01911
O         -3.62733       -2.89942       -0.26865
O         -2.79594       -0.75094        0.72514
O         -1.81926       -1.67081       -1.35772
H         -1.21083       -0.86919       -1.25720
C         -1.26197       -2.87773        0.91912
H         -1.67124       -3.10348        1.90461
H         -1.03885       -3.79476        0.37372
H         -0.38208       -2.23213        0.98476
H          5.15852        0.28615        1.66054
H          3.38767        0.12868        1.58784
H          4.44524       -2.03787        1.12247
H          3.56079       -1.44226       -0.28195
H          6.47467       -1.47460        0.02822
H          5.56932       -2.00660       -1.22504
H          4.28466        2.05920        0.32646
H          4.99808        0.98038       -0.70109
C          4.30420        0.10189        0.99262
C          4.44339       -1.26733        0.33931
N          4.21615        1.12417       -0.06259
N          5.63619       -1.29053       -0.51217
N         -2.21952        2.21117        0.08387
C         -1.56499        3.44462       -0.41944
H         -0.57129        3.50292        0.02468
H         -1.47247        3.37083       -1.50329
H         -2.17338        4.31000       -0.14621
C         -3.54887        1.99399       -0.53711
H         -3.42260        1.94248       -1.61923
H         -3.94720        1.04915       -0.16894
H         -4.20564        2.82646       -0.27396
C         -2.28268        2.19174        1.56796
H         -2.73031        1.24858        1.87720
H         -1.26206        2.25782        1.94494
H         -2.88418        3.03972        1.90487
H         -1.59585        1.42119       -0.22523
