33
1sa1msa1a1tma_54.log	Energy: -1001152.3078376
S         -0.65564        1.65077        0.35273
O          0.63693        1.99513        0.97771
O         -0.59515        1.28319       -1.06105
O         -1.45651        0.71210        1.17378
O         -1.49163        3.04610        0.34850
H         -1.39133        3.45951        1.21676
S          2.75038       -0.51929       -0.16097
O          1.48914       -1.25490       -0.05068
O          3.99707       -1.25348       -0.13487
O          2.82499        0.55663        0.99911
H          1.96700        1.06849        1.05832
C          2.66472        0.47563       -1.63473
H          1.72615        1.03444       -1.61995
H          3.53206        1.13541       -1.64902
H          2.68904       -0.21096       -2.48205
N         -3.53297        0.53547       -1.66128
H         -3.95949        0.65814       -2.57420
H         -2.57659        0.88691       -1.71881
H         -4.01991        1.15900       -1.02391
N         -1.82540       -1.81374        0.31799
C         -1.02370       -2.57714        1.30827
H          0.03005       -2.34767        1.14967
H         -1.32652       -2.26945        2.30971
H         -1.21223       -3.64392        1.16764
C         -3.28368       -2.02028        0.49645
H         -3.55319       -1.73889        1.51526
H         -3.79899       -1.38133       -0.22395
H         -3.51494       -3.07435        0.32509
C         -1.40232       -2.09462       -1.07927
H         -2.02099       -1.48837       -1.74018
H         -0.35130       -1.82519       -1.17794
H         -1.55044       -3.15886       -1.27857
H         -1.64461       -0.79836        0.51679
