35
1sa1msa1ma1eda_111.log	Energy: -1035888.3335187
S          1.40566        0.51317       -0.33817
O          2.53992        0.97707       -1.13036
O          0.10157        0.49808       -1.06633
O          1.66162       -1.01915        0.01910
O          1.24430        1.23190        0.95627
H          2.67830       -1.21820       -0.05976
H         -0.31414        1.52155        1.28962
S         -2.13447       -1.91471        0.05628
O         -3.35249       -2.64857       -0.21134
O         -2.18519       -0.76122        0.96182
O         -1.53870       -1.45904       -1.33234
H         -0.84454       -0.73064       -1.22220
C         -0.89481       -3.02624        0.68180
H         -1.23355       -3.37213        1.65913
H         -0.81368       -3.85977       -0.01591
H          0.04722       -2.47864        0.75282
N          4.24270       -1.27790       -0.25046
H          4.66683       -2.18428       -0.41858
C          4.89900       -0.57646        0.86152
H          5.97195       -0.42291        0.70122
H          4.41900        0.39647        0.98530
H          4.75618       -1.14666        1.78214
H          4.32217       -0.72811       -1.10307
H         -2.57904        3.47194        1.32383
H         -0.87003        3.81497        1.71832
H         -1.48855        4.48193       -0.63762
H         -0.19594        3.28397       -0.58701
H         -2.68550        2.96998       -1.83775
H         -1.48988        1.83715       -1.66481
H         -1.64183        1.52910        2.33406
H         -1.86250        1.19642        0.74047
C         -1.54079        3.22407        1.09020
C         -1.26400        3.43733       -0.39935
N         -1.33415        1.78971        1.40000
N         -2.07229        2.51073       -1.17949
