38
1sa1msa1dma1eda_330.log	Energy: -1060540.9698901
S         -0.92008       -0.66104       -0.39695
O          0.41277       -0.81936       -1.03833
O         -1.54884       -1.88136        0.08569
O         -0.86326        0.41850        0.64467
O         -1.79515       -0.05929       -1.58086
H          0.00499        1.59229        0.15430
H         -2.80266       -0.14341       -1.35862
S          3.50057       -0.53151        0.29783
O          3.04709        0.18576        1.48742
O          3.74915        0.27958       -0.89241
O          2.54350       -1.73072       -0.03504
H          1.64383       -1.40455       -0.40772
C          4.96307       -1.45540        0.70108
H          5.72687       -0.73014        0.98256
H          4.73120       -2.11733        1.53492
H          5.26851       -2.02007       -0.17918
N          0.50071        2.48159       -0.20405
C          1.10949        2.21768       -1.53507
C          1.46338        2.95608        0.81916
H         -0.24855        3.16380       -0.31310
H          1.93064        1.51109       -1.41056
H          0.34956        1.77793       -2.18090
H          1.48079        3.15737       -1.94969
H          2.19124        2.16320        0.99890
H          1.95832        3.86096        0.46135
H          0.92003        3.16044        1.74224
H         -5.72827       -1.38046        0.15287
H         -4.05984       -2.00517        0.07551
H         -4.46839       -0.93537        2.24227
H         -3.23410       -0.06460        1.33076
H         -6.00324        0.80760        1.72072
H         -4.62028        1.62672        2.00870
H         -4.79536       -0.69645       -1.90920
H         -4.79693        0.63302       -0.93850
C         -4.66584       -1.09697        0.11231
C         -4.30083       -0.30266        1.35977
N         -4.37537       -0.28449       -1.08157
N         -5.05589        0.95527        1.38785
