39
1sa1msa1dma1tma_42.log	Energy: -1050478.0913611
S         -0.51306       -1.49162        0.42780
O         -0.86229       -0.59238       -0.78455
O         -0.06557       -2.79992       -0.07118
O          0.59375       -0.78850        1.17447
O         -1.73945       -1.56756        1.28809
H         -2.96317       -0.87854        0.55400
S          0.58386        2.57618       -0.09010
O          0.42247        3.98870       -0.38145
O          1.72733        1.86487       -0.66797
O         -0.74789        1.84905       -0.50099
H         -0.67142        0.79755       -0.60140
C          0.63608        2.34936        1.67535
H          1.55809        2.80911        2.03414
H         -0.23006        2.85345        2.10454
H          0.61459        1.27455        1.87207
N         -3.49751       -0.43984       -0.26302
C         -3.93430        0.93330        0.05631
C         -4.55537       -1.35323       -0.72899
H         -2.70341       -0.41169       -0.92978
H         -4.64023        0.90082        0.88762
H         -3.05432        1.51863        0.32630
H         -4.41093        1.37919       -0.81860
H         -5.32054       -1.44054        0.04403
H         -5.00119       -0.96662       -1.64725
H         -4.10948       -2.33123       -0.91175
N          2.79212       -1.25701       -0.19452
C          3.87170       -0.31780        0.18370
H          3.54055        0.69493       -0.04746
H          4.05805       -0.41450        1.25441
H          4.77884       -0.56578       -0.37367
C          3.10973       -2.65983        0.16411
H          3.33161       -2.70730        1.23103
H          2.22770       -3.26623       -0.04624
H          3.97405       -2.99384       -0.41579
C          2.42132       -1.12953       -1.62823
H          1.58092       -1.79744       -1.81974
H          2.12149       -0.09766       -1.81000
H          3.28403       -1.40143       -2.24253
H          1.91800       -0.99820        0.37090
