30
1sa1msa2ma_11.log	Energy: -976506.3823600
S         -2.69628        0.00007        0.01855
O         -2.68723       -1.23408        0.82959
O         -2.68905        1.23593        0.82699
O         -1.68680       -0.00027       -1.05397
O         -4.10208       -0.00189       -0.79290
H         -4.82317       -0.00225       -0.14868
S          2.57077        0.00017       -0.17779
O          2.52205        1.25181       -0.95041
O          2.52149       -1.25074       -0.95157
O          1.48796       -0.00010        0.89321
C          4.10958       -0.00060        0.72615
H          4.91973       -0.00030       -0.00363
H          4.14951        0.89640        1.34421
H          4.14922       -0.89835        1.34312
N         -0.13624        2.09304        0.09464
H         -0.25958        1.78537       -0.87297
H         -1.07860        2.02549        0.52303
C          0.48631        3.42912        0.18998
H          0.60550        3.68499        1.24259
H          1.46010        3.38112       -0.29613
H         -0.15408        4.16444       -0.29690
H          0.47046        1.35583        0.52273
N         -0.13588       -2.09315        0.09445
H         -0.26039       -1.78618       -0.87323
H          0.47135       -1.35561        0.52137
C          0.48686       -3.42911        0.19006
H          0.60727       -3.68420        1.24273
H         -0.15397       -4.16489       -0.29554
H          1.46014       -3.38136       -0.29710
H         -1.07770       -2.02520        0.52391
