41
1sa1msa1tma1eda_68.log	Energy: -1085218.6069854
S         -0.25660       -1.90943       -0.86936
O         -0.43128       -0.76303       -1.95114
O         -0.20315       -1.21726        0.46007
O         -1.42420       -2.76849       -1.03191
O          1.05133       -2.57671       -1.12215
H          1.99874       -2.31891        0.08830
S          0.13541        2.38726       -0.37121
O          0.58009        2.32742        1.03910
O         -1.33354        2.33359       -0.52771
O          0.84359        1.39606       -1.24433
H          0.08219        0.06477       -1.69044
C          0.65329        3.98085       -0.99310
H          0.16174        4.75128       -0.39834
H          1.73662        4.05268       -0.89331
H          0.35687        4.05321       -2.03965
H          4.64413       -1.43811        1.14476
H          4.11957       -1.60850       -0.55210
H          4.19162        0.82669        0.25946
H          2.59929        0.33115       -0.32102
H          3.32634        0.82689        2.42932
H          1.89915        1.05823        1.63039
H          2.94077       -2.98653        1.33208
H          2.16960       -1.50484        1.58331
C          3.81711       -1.28565        0.44554
C          3.33860        0.17055        0.47000
N          2.66682       -2.11006        0.89750
N          2.69020        0.42110        1.75317
N         -2.68938       -0.29870        0.92344
C         -2.79285        0.86777        1.83470
H         -2.23385        0.65055        2.74566
H         -2.35796        1.73077        1.32899
H         -3.84649        1.03771        2.06998
C         -3.34178       -0.04104       -0.39086
H         -2.86382        0.83144       -0.83579
H         -3.18845       -0.91634       -1.02286
H         -4.40698        0.13342       -0.21931
C         -3.19586       -1.54956        1.53858
H         -2.99041       -2.37169        0.85120
H         -2.67085       -1.71723        2.47962
H         -4.26851       -1.44854        1.71930
H         -1.66745       -0.48003        0.73612
