40
1sa1msa2eda_41.log	Energy: -1095296.2292008
S          2.37248        1.58218        0.07473
O          1.64411        2.53743        0.91001
O          3.32000        0.71212        0.77383
O          1.46721        0.83904       -0.85562
O          3.25002        2.45491       -0.98943
H          3.86802        2.99878       -0.48260
S         -2.40980       -1.67080       -0.03525
O         -1.54350       -2.59979       -0.81512
O         -3.29024       -0.82403       -0.85378
O         -1.58173       -0.87153        0.92765
C         -3.45646       -2.70809        0.97080
H         -4.06202       -3.32268        0.30425
H         -2.82259       -3.33224        1.60067
H         -4.09023       -2.06389        1.58057
H         -1.72855        2.95443       -1.51638
H         -2.34871        1.28080       -1.64778
H         -4.14415        2.82141       -0.87613
H         -3.75601        1.57866        0.31281
H         -2.98081        4.40392        0.47689
H         -3.67617        3.46195        1.62082
H         -0.16673        1.48093       -0.47078
H         -0.95407        2.35236        0.71516
C         -2.12883        2.10043       -0.96275
C         -3.37324        2.48106       -0.17242
N         -1.08289        1.64765       -0.01727
N         -3.01808        3.46236        0.85173
H         -1.34831        0.73770        0.43228
H          1.85227       -3.76407       -0.61358
H          2.12750       -2.60353       -1.93300
H          4.19950       -3.06614       -0.48345
H          3.75544       -1.36020       -0.60469
H          3.83382       -2.88733        1.75907
H          3.47565       -1.28274        1.55871
H          0.07629       -2.17794       -0.54661
H          1.13755       -1.90037        0.73368
C          2.11057       -2.72850       -0.84852
C          3.44094       -2.32825       -0.20296
N          1.04398       -1.86989       -0.28890
N          3.26954       -2.22599        1.24394
H          1.17669       -0.87594       -0.56332
