30
1sa1msa1a1dma_35.log	Energy: -976495.7036988
S         -2.15845       -0.62575       -0.11238
O         -1.36386        0.28238        0.71673
O         -2.78830       -0.04671       -1.29104
O         -1.41733       -1.89625       -0.41369
O         -3.36038       -1.08140        0.88653
H         -4.01820       -1.55818        0.36264
S          1.86706       -1.00820       -0.04790
O          2.31783       -0.20125        1.08661
O          1.34579       -0.25273       -1.19897
O          0.86667       -2.09554        0.39729
H         -0.15722       -1.97321        0.03796
C          3.24146       -1.98791       -0.60341
H          4.03045       -1.30157       -0.91144
H          3.57226       -2.60876        0.22905
H          2.90810       -2.60135       -1.44003
N          0.37065        1.80720        2.35823
H          0.55346        2.40301        3.15775
H          1.08543        1.08022        2.31931
H         -0.51759        1.33004        2.49390
N          0.35151        2.26217       -0.38651
C          1.62903        2.95122       -0.64862
C         -0.83574        2.90832       -0.98188
H          0.43660        1.28892       -0.72339
H          1.58088        3.96208       -0.23954
H          2.42514        2.38931       -0.15903
H          1.81178        2.99162       -1.72345
H         -0.96429        3.89540       -0.53382
H         -0.69283        3.00579       -2.05935
H         -1.70443        2.28229       -0.78150
H          0.24571        2.17414        0.66917
