33
1sa1msa1a1tma_74.log	Energy: -1001137.6088299
S         -1.94693        0.19912        0.37839
O         -2.98553        1.19897        0.47748
O         -0.90464        0.14728        1.39565
O         -2.57995       -1.23126        0.31749
O         -1.28419        0.39185       -1.04153
H         -3.51902       -1.17713       -0.12849
H         -0.43166       -0.11945       -1.09527
S          1.91926       -1.44142       -0.12927
O          3.21507       -0.90144       -0.48039
O          0.79482       -1.24634       -1.05491
O          1.49867       -0.95160        1.31346
H          0.63638       -0.44954        1.29822
C          2.08696       -3.18796        0.14709
H          2.41072       -3.63209       -0.79465
H          2.84037       -3.33582        0.92076
H          1.12028       -3.58440        0.45610
N         -4.94270       -0.88998       -0.73773
H         -5.06462        0.10397       -0.55514
H         -5.70308       -1.39111       -0.28960
H         -5.01120       -1.03796       -1.73965
N          1.41162        2.01328       -0.11627
C          1.94970        2.13227       -1.46161
H          2.71843        1.37173       -1.61972
H          1.15122        1.97437       -2.19346
H          2.39571        3.12909       -1.64748
C          0.35848        2.99051        0.10737
H         -0.43185        2.86357       -0.63706
H         -0.08006        2.84408        1.09849
H          0.73530        4.02981        0.04059
C          2.46259        2.16150        0.87809
H          2.04408        2.01703        1.87876
H          3.23574        1.40674        0.71626
H          2.93322        3.16335        0.83980
