40
1sa1msa2eda_140.log	Energy: -1095289.3050166
S          0.98179       -1.64412       -1.00991
O          1.03392       -0.28937       -1.87627
O          0.10560       -2.59440       -1.69583
O          2.41399       -2.00964       -0.94116
O          0.44583       -1.25182        0.32572
H          3.22304       -0.71506       -0.38280
H         -1.30169       -1.25059        0.13901
S         -1.29166        1.94433       -0.41454
O          0.06163        2.45111       -0.14751
O         -2.01940        1.40942        0.75518
O         -1.30675        0.94385       -1.55410
H          0.16447        0.19866       -1.81397
C         -2.25041        3.32328       -1.02370
H         -1.76230        3.71300       -1.91705
H         -3.25625        2.97219       -1.25504
H         -2.27950        4.08008       -0.23935
H          3.58636        2.20034        0.21807
H          2.17172        1.42254       -0.55264
H          1.74834        2.02268        1.85886
H          1.55834        0.30950        1.50442
H          3.75370        1.52334        3.00299
H          2.96835        0.11558        3.26848
H          4.49131        0.30972       -0.76905
H          4.23244       -0.10043        0.84303
C          2.93169        1.32402        0.22088
C          2.29302        1.11376        1.58998
N          3.78547        0.12834       -0.06001
N          3.33889        0.71931        2.54462
H         -2.71752       -3.05652        1.77917
H         -3.85886       -1.95811        2.53698
H         -4.18467       -1.93276        0.08039
H         -3.64309       -0.34393        0.68511
H         -2.06271       -2.24439       -0.91115
H         -2.18880       -0.57558       -1.02963
H         -0.96148       -1.61755        2.19781
H         -1.92160       -0.32254        2.47590
C         -2.96699       -1.99618        1.90066
C         -3.36014       -1.38876        0.54823
N         -1.86188       -1.33325        2.56889
N         -2.20012       -1.38342       -0.37820
