33
1sa1msa1ma1dma_174.log	Energy: -1001147.8700718
S          0.37825       -0.39497       -0.57922
O         -0.75877       -0.96367       -1.33482
O          1.65397       -0.38671       -1.29422
O          0.04730        1.16110       -0.35974
O          0.49701       -0.99480        0.78047
H         -0.88100        1.24635       -0.03519
H          2.06984       -1.15486        1.12926
S         -3.65087        0.28233        0.08737
O         -4.56430        0.84559       -0.88616
O         -2.51598        1.10713        0.52804
O         -3.11896       -1.12559       -0.37544
H         -2.17288       -1.07571       -0.75459
C         -4.56814       -0.19831        1.53129
H         -5.02332        0.70633        1.93522
H         -5.33400       -0.91030        1.22432
H         -3.87789       -0.64351        2.24688
N          3.11950       -1.26812        1.23146
H          3.57124       -0.31643        1.00890
C          3.60487       -2.29806        0.28437
H          4.68871       -2.39302        0.36551
H          3.12874       -3.25360        0.50521
H          3.31947       -1.97621       -0.71695
H          3.32446       -1.51779        2.19618
N          4.22098        1.17732        0.52399
C          3.19126        2.19059        0.79373
C          4.53694        1.08396       -0.90806
H          5.06579        1.42956        1.02962
H          2.26034        1.90209        0.30003
H          3.00859        2.25082        1.86997
H          3.48274        3.18505        0.42868
H          3.63871        0.76202       -1.44017
H          4.87346        2.04388       -1.32356
H          5.32380        0.33970       -1.06095
