32
1sa1msa1a1eda_55.log	Energy: -1011239.5052451
S          2.46729       -0.99279       -0.07822
O          1.94118       -2.07567       -0.94079
O          3.00281        0.14991       -0.82075
O          1.52437       -0.64558        1.00571
O          3.71506       -1.63905        0.74241
H          4.43300       -1.79956        0.11501
S         -2.96161       -0.09989       -0.11444
O         -2.77971       -1.25707       -1.03405
O         -2.88709        1.22127       -0.74889
O         -2.01710       -0.21613        1.05575
C         -4.59917       -0.27265        0.57123
H         -5.31315       -0.20946       -0.25035
H         -4.66946       -1.24088        1.06678
H         -4.75950        0.53814        1.28201
N         -0.59077       -2.49695       -0.00720
H          0.33132       -2.43930       -0.50010
H         -1.39681       -2.17031       -0.59268
H         -0.75151       -3.43836        0.33844
H         -0.55464       -1.83471        0.77672
H          0.53375        1.22465       -1.02363
H         -0.79227        2.38412       -0.85988
H          1.42407        3.41065       -1.57543
H          0.74651        4.13940       -0.11604
H          2.84659        2.07996       -0.07560
H          3.00593        3.66253        0.36064
H         -0.85681        1.01276        1.02099
H          0.79484        1.04308        1.21572
C          0.18102        2.09288       -0.46320
C          1.20056        3.22326       -0.51470
N         -0.01101        1.62915        0.94090
N          2.35568        2.88822        0.30638
H         -0.08070        2.41489        1.58441
