35
1sa1msa1ma1eda_172.log	Energy: -1035885.5790408
S          1.47683       -0.87597       -0.94417
O          0.12458       -1.23176       -1.47987
O          2.56393       -1.77038       -1.30638
O          1.75334        0.55883       -1.26050
O          1.25492       -0.95949        0.62901
H          0.31602        1.28433       -1.40836
H          2.17893       -0.97245        1.09112
S         -2.54544       -0.66009        0.43232
O         -2.77741        0.29436       -0.67041
O         -1.88294       -0.11082        1.60521
O         -1.83209       -1.93553       -0.11030
H         -0.96633       -1.69784       -0.64544
C         -4.10575       -1.36137        0.89996
H         -4.57173       -1.79162        0.01436
H         -3.91905       -2.12179        1.65790
H         -4.70966       -0.55004        1.30681
N          3.69965       -0.88595        1.55789
H          3.89959       -1.22161        2.49428
C          4.14363        0.50359        1.37848
H          5.21467        0.64550        1.56160
H          3.91421        0.80884        0.35471
H          3.57807        1.14588        2.05793
H          4.16809       -1.50254        0.89847
H         -1.55407        2.48656        0.99370
H         -0.52594        3.90884        1.13092
H         -1.43831        3.69722       -1.14231
H          0.33720        3.62714       -1.13928
H         -1.38430        1.20738       -1.23466
H         -0.69972        1.93727       -2.55800
H          0.17072        1.07767        1.27507
H          1.32124        2.10457        0.71339
C         -0.58826        2.90385        0.69286
C         -0.57328        3.10676       -0.82787
N          0.45146        2.05237        1.23148
N         -0.59746        1.80855       -1.55327
