24
1sa1msa2a_02.log	Energy: -927185.1374933
S         -2.49248        0.00025       -0.06641
O         -2.35751        1.23647       -0.86577
O         -2.35544       -1.23463       -0.86755
O         -1.66476        0.00016        1.14847
O         -4.00981       -0.00164        0.50687
H         -4.61851       -0.00382       -0.24460
S          2.47493       -0.00020       -0.09580
O          2.27517        1.24434       -0.88800
O          2.27707       -1.24584       -0.88667
O          1.65000       -0.00009        1.14258
C          4.18704        0.00135        0.39751
H          4.37216        0.89919        0.98716
H          4.37372       -0.89600        0.98742
H          4.79645        0.00175       -0.50651
N         -0.01362        2.21705        0.20976
H         -0.88483        2.04433       -0.33719
H          0.00405        3.16095        0.58366
H         -0.01429        1.52554        0.97141
H          0.84837        2.00983       -0.35294
N         -0.01356       -2.21708        0.20987
H          0.84891       -2.01141       -0.35248
H         -0.88419       -2.04453       -0.33805
H          0.00318       -3.16039        0.58527
H         -0.01408       -1.52440        0.97048
