36
1sa1msa1ma1tma_76.log	Energy: -1025809.7824136
S         -1.03618        1.87810       -0.08190
O          0.16599        2.28760       -0.85167
O         -2.25684        1.86286       -0.88768
O         -0.80306        0.66453        0.71665
O         -1.22832        3.01716        1.06265
H         -1.44446        3.85192        0.62486
S          2.53517       -0.25479       -0.00925
O          3.88400       -0.75233       -0.17278
O          1.42354       -1.19733       -0.17592
O          2.36332        0.95007       -1.01306
H          1.47224        1.42482       -0.93271
C          2.35884        0.50565        1.59060
H          2.52049       -0.27607        2.33446
H          3.11773        1.28256        1.68131
H          1.34851        0.91214        1.66734
N         -0.87562       -2.03338        1.98626
H         -0.39371       -2.80288        2.43969
C         -1.86422       -1.43941        2.88829
H         -1.45528       -1.11070        3.85382
H         -2.30083       -0.56628        2.39821
H         -2.66131       -2.16338        3.08467
H         -0.16724       -1.34462        1.74737
N         -1.24256       -1.55931       -1.11845
C         -0.90251       -0.86465       -2.38876
H         -1.28608        0.15491       -2.34710
H          0.18211       -0.85798       -2.49400
H         -1.36573       -1.40560       -3.21653
C         -0.78432       -2.97171       -1.12969
H          0.28767       -2.98414       -1.32061
H         -0.98753       -3.39111       -0.14519
H         -1.32867       -3.50653       -1.91109
C         -2.68944       -1.45373       -0.79375
H         -2.84242       -1.92336        0.17772
H         -2.95727       -0.39733       -0.75184
H         -3.25931       -1.96774       -1.57089
H         -0.73451       -1.07019       -0.36154
