36
1sa1msa1ma1tma_41.log	Energy: -1025815.0456807
S          1.30271        0.22378        0.68052
O          0.39331        0.71752        1.72301
O          1.27465       -1.26031        0.50542
O          1.08153        0.91613       -0.61694
O          2.76718        0.55863        1.16457
H          3.42670       -0.05125        0.65588
S         -2.05549       -1.75093       -0.22825
O         -3.13448       -2.60146       -0.68653
O         -2.01450       -0.36173       -0.69303
O         -0.70178       -2.47139       -0.59171
H          0.09443       -1.95524       -0.22932
C         -2.03070       -1.71111        1.55340
H         -2.97941       -1.27940        1.87597
H         -1.93516       -2.73458        1.91567
H         -1.19126       -1.08993        1.87650
N          4.21027       -1.13939       -0.22770
H          5.17991       -1.32523        0.00625
C          4.05519       -0.81613       -1.65322
H          4.40508       -1.61321       -2.31907
H          2.99889       -0.62311       -1.85167
H          4.60979        0.09882       -1.87364
H          3.66793       -1.96789        0.00499
N         -1.11168        2.47499       -0.33515
C         -2.12578        2.30597        0.73555
H         -2.76354        1.46578        0.46818
H         -1.59880        2.08613        1.66345
H         -2.70339        3.23001        0.81696
C         -0.19688        3.60499       -0.03848
H          0.26492        3.42157        0.93180
H          0.57881        3.63395       -0.80257
H         -0.76737        4.53651       -0.02805
C         -1.72928        2.58626       -1.67875
H         -0.93344        2.66221       -2.42008
H         -2.31020        1.68239       -1.85975
H         -2.36348        3.47523       -1.71011
H         -0.48854        1.63351       -0.36689
