23
1sa1msa1ma_52.log	Energy: -916321.8549865
S          1.41636       -1.08359       -0.03906
O          0.41488       -2.07222        0.29858
O          2.80525       -1.45400       -0.20794
O          1.00963       -0.37668       -1.41306
O          1.30405        0.08151        1.00360
H          0.06059       -0.12005       -1.37632
H          2.20082        0.68168        0.95469
S         -2.65077        0.25063       -0.10844
O         -1.57350        0.46573       -1.06376
O         -3.81779       -0.51759       -0.49728
O         -3.16996        1.72461        0.33360
H         -4.11144        1.78445        0.11528
C         -1.97724       -0.33405        1.42018
H         -1.53488       -1.31201        1.21920
H         -1.19287        0.35632        1.73196
H         -2.78724       -0.39181        2.14636
N          3.47988        1.37852        0.74133
H          3.75500        2.00360        1.49297
C          3.44613        2.08185       -0.55329
H          4.40886        2.53154       -0.81412
H          3.16049        1.36728       -1.32691
H          2.68440        2.86263       -0.51348
H          4.15384        0.61640        0.70972
