38
1sa1msa1dma1eda_205.log	Energy: -1060547.9418842
S         -0.35261       -1.95229       -0.01427
O         -0.86529       -0.90519       -0.94635
O          0.25881       -1.31183        1.19139
O         -1.32981       -2.97591        0.30964
O          0.83602       -2.68476       -0.78811
H          1.51665       -2.00652       -0.99738
S          2.98769        0.46461       -0.07405
O          3.07819        1.84364       -0.51789
O          2.54532       -0.54349       -1.04501
O          2.08649        0.39216        1.20656
H          1.33859       -0.32642        1.15202
C          4.57362       -0.03534        0.55575
H          5.27766       -0.00590       -0.27641
H          4.86758        0.66844        1.33420
H          4.48234       -1.04572        0.95404
N         -3.22926       -0.02684       -0.01518
C         -4.32416       -0.58960       -0.82762
C         -3.27104       -0.42420        1.40892
H         -2.31516       -0.35873       -0.41981
H         -5.28569       -0.26428       -0.42569
H         -4.21392       -0.23993       -1.85457
H         -4.25762       -1.67852       -0.80674
H         -4.20483       -0.07805        1.85591
H         -3.18429       -1.50966        1.48100
H         -2.42081        0.02770        1.92133
H         -3.19433        1.03241       -0.09860
H         -1.34761        4.15346        0.35193
H         -2.03827        3.09715        1.59864
H          0.34648        2.51885        0.97642
H         -0.76609        1.18203        0.78976
H          0.73144        2.44047       -1.24180
H         -0.12097        1.04451       -1.29023
H         -3.50169        3.42524       -0.36192
H         -2.34482        2.68930       -1.27247
C         -1.67941        3.12789        0.56381
C         -0.50302        2.16499        0.38242
N         -2.76926        2.72268       -0.34220
N         -0.17000        2.02665       -1.03374
