39
1sa1msa1dma1tma_85.log	Energy: -1050472.1821734
S         -0.55127       -1.77729       -0.48197
O         -0.35532       -0.48171       -1.12274
O         -0.35401       -1.59583        1.07516
O         -1.79699       -2.47692       -0.67061
O          0.61841       -2.73049       -0.91419
H          1.48731       -2.22158       -0.86091
S          2.69222       -0.01725        0.21468
O          2.38683        1.18404       -0.59191
O          2.76503       -1.27698       -0.56750
O          1.77033       -0.13667        1.39115
H          0.47595       -1.04667        1.25565
C          4.31909        0.21621        0.89926
H          5.02134        0.30895        0.07068
H          4.30966        1.12395        1.50274
H          4.55664       -0.65401        1.51088
N         -3.43173        0.00249        0.36389
C         -4.58413        0.67894       -0.20505
C         -3.60052       -0.31859        1.77344
H         -3.23937       -0.85360       -0.14919
H         -4.70122        1.66390        0.26377
H         -4.43301        0.83169       -1.27790
H         -5.53242        0.13210       -0.06647
H         -3.64239        0.60903        2.35846
H         -4.52019       -0.88892        1.98583
H         -2.74210       -0.90222        2.11518
N         -0.20614        2.24360       -0.39282
C         -0.74518        1.92180        0.95858
H         -1.46814        1.10862        0.85038
H          0.08951        1.62521        1.59457
H         -1.24237        2.81259        1.35018
C          0.61523        3.47845       -0.37768
H          1.39791        3.36321        0.36971
H          1.07690        3.60777       -1.35620
H         -0.03058        4.32669       -0.14109
C         -1.29272        2.30949       -1.40374
H         -0.84847        2.47099       -2.38620
H         -1.82966        1.36281       -1.37992
H         -1.95792        3.13589       -1.14422
H          0.43757        1.47212       -0.65046
