33
1sa1msa1a1tma_60.log	Energy: -1001153.3445962
S          0.51662        1.52256        0.37658
O          0.53135        0.49425       -0.74999
O          0.06672        0.86682        1.61362
O          1.77974        2.24009        0.44801
O         -0.57307        2.59539       -0.06113
H         -1.42973        2.13315       -0.21786
S         -2.83364       -0.45072       -0.33371
O         -3.93170       -1.18771       -0.91558
O         -2.75944        1.00073       -0.53017
O         -1.48225       -1.09524       -0.86426
H         -0.72544       -0.41676       -0.85001
C         -2.76716       -0.76311        1.41588
H         -3.67787       -0.34542        1.84708
H         -2.73320       -1.84221        1.56732
H         -1.88093       -0.26254        1.81289
N          3.39818        0.77704       -1.74835
H          2.65146        0.74781       -2.43727
H          4.22544        1.12869       -2.22019
H          3.10519        1.48513       -1.07400
N          2.17873       -1.47046        0.21082
C          1.10744       -2.18952        0.94905
H          0.63011       -1.47829        1.62488
H          0.37121       -2.55660        0.23314
H          1.55365       -3.01998        1.50013
C          2.83515       -2.32197       -0.81061
H          2.07138       -2.71101       -1.48528
H          3.53230       -1.69061       -1.36247
H          3.34767       -3.14743       -0.31153
C          3.16746       -0.86041        1.13963
H          3.87865       -0.29233        0.54173
H          2.63722       -0.19142        1.81813
H          3.66537       -1.65895        1.69432
H          1.70332       -0.68145       -0.29188
