39
1sa1msa1dma1tma_75.log	Energy: -1050471.7257983
S          1.36922        0.26395       -0.53052
O          2.31959       -0.19092       -1.53980
O         -0.06156       -0.05682       -0.81317
O          1.68229       -0.50074        0.82009
O          1.45827        1.72639       -0.23545
H          2.68449       -0.78332        0.85554
H         -0.03850        2.24261       -0.07133
S         -2.85094       -1.46549        0.11738
O         -3.41389       -0.49134       -0.81434
O         -2.65254       -1.02158        1.49362
O         -1.52512       -2.08345       -0.46754
H         -0.83621       -1.34091       -0.61894
C         -3.85819       -2.92919        0.11755
H         -3.95367       -3.28504       -0.90773
H         -3.38176       -3.67493        0.75324
H         -4.82952       -2.64198        0.52121
N          4.19523       -1.20917        0.85441
C          4.98138       -0.02883        0.48118
C          4.34292       -2.31078       -0.10262
H          4.47474       -1.52318        1.77921
H          4.60260        0.34969       -0.47135
H          4.84923        0.74887        1.23707
H          6.05174       -0.25527        0.37796
H          3.92334       -1.98977       -1.05869
H          5.39355       -2.60080       -0.24304
H          3.77550       -3.17490        0.25045
N         -0.96714        2.71650        0.14345
C         -1.47353        2.11267        1.40184
H         -1.65108        1.04848        1.24779
H         -0.71899        2.24763        2.17770
H         -2.40548        2.60728        1.68551
C         -0.64522        4.15051        0.31284
H          0.09766        4.25250        1.10455
H         -0.22976        4.53246       -0.62022
H         -1.55291        4.69998        0.57322
C         -1.89234        2.48431       -0.99398
H         -1.41988        2.85434       -1.90451
H         -2.08401        1.41591       -1.08484
H         -2.82651        3.01930       -0.80574
