38
1sa1msa1dma1eda_152.log	Energy: -1060548.5439921
S          0.97682       -0.06875       -1.03991
O         -0.48680       -0.25042       -1.31991
O          1.84939       -0.33855       -2.17395
O          1.17963        1.28303       -0.43638
O          1.27310       -1.13219        0.09141
H         -0.27238        1.89042       -0.04228
H          2.28733       -1.38462        0.08953
S         -3.21837       -0.89968        0.37227
O         -4.08809       -0.30817       -0.63344
O         -2.61225        0.04465        1.33063
O         -2.11414       -1.79942       -0.26412
H         -1.36593       -1.22345       -0.71241
C         -4.10711       -2.12780        1.29424
H         -4.93417       -1.61848        1.78949
H         -4.47797       -2.87327        0.59124
H         -3.42808       -2.57225        2.02092
N         -1.25102        2.21226        0.20282
C         -1.97759        2.53945       -1.04456
C         -1.18732        3.31399        1.18048
H         -1.71114        1.39107        0.64107
H         -1.50130        3.40037       -1.51629
H         -1.91790        1.67259       -1.70190
H         -3.02024        2.75893       -0.81034
H         -0.66721        4.16230        0.73296
H         -2.19921        3.60723        1.46543
H         -0.64153        2.97209        2.05994
H          5.62535       -0.69333       -0.47660
H          4.13058       -0.06885       -1.21320
H          4.91007        1.46666        0.54058
H          3.36249        0.74409        0.98590
H          5.97350        0.02478        2.10619
H          4.59801        0.42560        2.89390
H          3.97334       -2.43148       -0.63326
H          4.14835       -2.02827        0.96079
C          4.56125       -0.48031       -0.29676
C          4.42445        0.52660        0.83804
N          3.81823       -1.70095        0.05424
N          4.96195       -0.04705        2.07553
