27
1sa1msa1a1ma_42.log	Energy: -951833.6957433
S          2.06604       -0.30511       -0.44598
O          2.96908       -1.42587       -0.63250
O          0.78899       -0.42797       -1.23906
O          1.58463       -0.28664        1.08845
O          2.62831        1.04808       -0.63669
H          1.29880       -1.22907        1.33098
H          1.36768        2.07300       -0.42619
S         -2.37029       -0.05352       -0.25544
O         -3.03621        0.16628       -1.52543
O         -1.74238        1.12367        0.37708
O         -1.33368       -1.21823       -0.32834
H         -0.38990       -0.89787       -0.73008
C         -3.52820       -0.72994        0.90999
H         -4.31773        0.01123        1.03734
H         -3.93298       -1.65073        0.49022
H         -3.01218       -0.91390        1.85161
N          0.89723       -2.86407        1.32404
H          0.93888       -3.40733        2.17908
H          1.58905       -3.23298        0.67516
H         -0.02170       -2.98277        0.90684
N          0.53662        2.60330       -0.04000
H          0.34591        3.41546       -0.62223
C          0.81626        2.96930        1.36947
H         -0.06562        3.43689        1.80640
H          1.05746        2.04739        1.89764
H          1.66839        3.64749        1.40362
H         -0.29336        1.97595       -0.07092
