41
1sa1msa1tma1eda_34.log	Energy: -1085220.6378006
S         -0.06114       -2.00871       -0.14809
O         -0.28221       -1.23432       -1.55110
O         -0.61398       -1.09789        0.88566
O         -0.77963       -3.26233       -0.31503
O          1.41335       -2.14129        0.02419
H          1.94026       -0.78795        0.79606
S          0.04374        2.11034       -0.20217
O          0.59836        2.16159        1.17633
O         -1.41340        1.84827       -0.24926
O          0.82932        1.19751       -1.08055
H          0.13678       -0.34051       -1.47728
C          0.26231        3.74704       -0.87973
H         -0.28380        4.45031       -0.25073
H          1.32776        3.97796       -0.87947
H         -0.13198        3.74949       -1.89608
H          4.73095       -1.14463        1.05802
H          5.45635        0.10786        0.07017
H          3.97597        1.27162        1.54578
H          3.16490        1.25491       -0.03438
H          2.48887       -0.37177        2.30822
H          1.54833        0.72691        1.45043
H          3.30003       -1.71506       -0.78739
H          3.93334       -0.50778       -1.69576
C          4.51408       -0.41655        0.26586
C          3.52138        0.62867        0.78638
N          4.12770       -1.14099       -0.92775
N          2.30648        0.01115        1.38296
N         -3.22969       -0.13281        0.23178
C         -3.46036       -1.39366       -0.52259
H         -3.21916       -1.21984       -1.57098
H         -2.80520       -2.17446       -0.13713
H         -4.51025       -1.67364       -0.41011
C         -3.37116       -0.33473        1.69625
H         -2.65095       -1.09292        1.99867
H         -3.14112        0.60696        2.19509
H         -4.39644       -0.64343        1.91210
C         -4.10832        0.95759       -0.25753
H         -3.85560        1.87456        0.27163
H         -3.92549        1.10237       -1.32158
H         -5.14945        0.67762       -0.08269
H         -2.24905        0.18159        0.07889
