38
1sa1msa1dma1eda_89.log	Energy: -1060559.9430028
S          2.82542        0.51527       -0.20966
O          3.31106       -0.62450       -0.98664
O          2.25659        1.62340       -0.98377
O          1.93062        0.10446        0.91827
O          4.10447        1.11234        0.60332
H          4.79775        1.31001       -0.04099
S         -2.48467       -1.02445       -0.08662
O         -2.74604        0.30312        0.54471
O         -2.52078       -2.16071        0.84100
O         -1.20454       -0.97251       -0.87308
C         -3.78586       -1.25812       -1.28316
H         -4.73588       -1.25849       -0.74818
H         -3.74919       -0.44111       -2.00368
H         -3.62435       -2.21642       -1.77699
N          0.83458       -2.37999        0.26847
C          1.54110       -3.20063       -0.73898
C          0.40335       -3.12454        1.47173
H          1.42508       -1.57401        0.55312
H          0.85978       -3.97067       -1.10389
H          1.86499       -2.54800       -1.54825
H          2.41790       -3.65809       -0.27920
H         -0.29161       -3.90976        1.17532
H          1.28191       -3.54825        1.96080
H         -0.11694       -2.44043        2.14023
H          0.00078       -1.92633       -0.18082
H         -0.37039        3.21543        1.60219
H          0.68444        3.42564        0.18263
H         -1.28453        4.85683       -0.08379
H         -1.34686        3.58186       -1.28289
H         -3.01374        2.46460        0.09256
H         -2.95156        3.69299        1.18155
H          0.43438        1.10240        0.75440
H         -1.24794        1.17331        0.51511
C         -0.29139        3.06985        0.52156
C         -1.43599        3.77965       -0.20754
N         -0.33109        1.60853        0.26980
N         -2.78358        3.44712        0.21281
H         -0.16386        1.40360       -0.71837
