26
1sa1msa1dma_70.log	Energy: -940975.6878615
S         -2.23889       -0.57088       -0.15724
O         -3.50629       -1.08543       -0.59134
O         -1.25544       -0.07039       -1.10651
O         -2.48535        0.68963        0.81151
O         -1.57988       -1.63308        0.78098
H         -3.28753        0.53973        1.33350
H         -0.60561       -1.42261        0.94262
S          1.96965       -1.10908        0.05376
O          2.78590       -2.29738        0.09777
O          0.89431       -0.94215        1.05365
O          1.29910       -1.03523       -1.38953
H          0.41212       -0.60740       -1.34783
C          2.97103        0.34794        0.10892
H          3.43538        0.37955        1.09548
H          3.72667        0.25449       -0.67143
H          2.29913        1.20169       -0.06046
N          0.49050        2.38472       -0.16872
C          0.60382        3.65725       -0.86521
C          0.29584        2.53937        1.26577
H         -0.28063        1.84971       -0.55561
H          1.51370        4.17255       -0.53765
H          0.68613        3.48338       -1.94115
H         -0.24817        4.33366       -0.68346
H          1.18070        3.01709        1.70252
H         -0.58168        3.15430        1.52490
H          0.18127        1.55500        1.72614
