38
1sa1msa1dma1eda_108.log	Energy: -1060559.0602602
S          0.63004       -1.75880       -0.52465
O          0.61003       -0.66922       -1.70795
O         -0.48052       -2.70045       -0.77267
O          1.98862       -2.33059       -0.67858
O          0.44975       -1.02534        0.74156
H          2.96786       -1.01798       -0.62199
H         -2.06156       -0.35209        0.82515
S         -1.32819        1.87750       -0.20628
O          0.03970        2.39195       -0.05775
O         -1.94721        1.35914        1.04600
O         -1.46968        0.86746       -1.30872
H         -0.19298       -0.07558       -1.60865
C         -2.34515        3.25833       -0.70888
H         -1.93862        3.65961       -1.63748
H         -3.36549        2.90371       -0.85587
H         -2.30841        4.00794        0.08198
N         -2.43661       -1.32341        0.71283
C         -3.75145       -1.22169        0.05234
C         -2.44673       -1.97191        2.03818
H         -1.77361       -1.84208        0.09983
H         -4.42128       -0.63538        0.68320
H         -3.60499       -0.71337       -0.90094
H         -4.16048       -2.22086       -0.10718
H         -3.06775       -1.38552        2.71717
H         -2.84186       -2.98478        1.94382
H         -1.41845       -2.00098        2.39815
H          3.53526        1.92868       -0.71550
H          1.93847        1.13553       -0.84416
H          2.30231        2.15211        1.42055
H          2.02648        0.41532        1.46698
H          4.58256        1.76809        1.92325
H          3.93404        0.49063        2.70738
H          4.02931       -0.16125       -1.58770
H          4.33489       -0.26755        0.06396
C          2.90554        1.11432       -0.34522
C          2.74297        1.18375        1.16737
N          3.60820       -0.16859       -0.66206
N          4.04528        0.91719        1.79567
