40
1sa1msa2eda_113.log	Energy: -1095293.7522640
S          2.95992       -0.97517        0.20883
O          3.29216        0.19471        1.02089
O          2.47758       -2.14955        0.94647
O          2.07527       -0.63663       -0.94944
O          4.32421       -1.42969       -0.55490
H          4.99127       -1.61857        0.11895
S         -2.48478        0.72899       -0.05767
O         -2.95564       -0.39027       -0.89755
O         -2.33923        2.02578       -0.73743
O         -1.21168        0.35867        0.67275
C         -3.70044        0.93783        1.23388
H         -4.65115        1.18896        0.76264
H         -3.77525       -0.00100        1.78398
H         -3.37282        1.74139        1.89362
H          1.55679        3.14966       -1.65888
H         -0.13283        2.57264       -1.77158
H         -0.04383        4.93378       -0.96204
H         -0.76568        3.82941        0.20819
H          1.92692        4.98580        0.38404
H          0.76380        4.91017        1.53356
H          1.49082        1.02016       -0.61936
H          1.55939        2.16458        0.59745
C          0.65143        2.91067       -1.09358
C          0.17514        4.10500       -0.27634
N          0.98035        1.80214       -0.16815
N          1.17020        4.41744        0.74840
H          0.11562        1.37254        0.23651
H         -1.58783       -2.28498       -1.64244
H         -0.36880       -3.58634       -1.58749
H         -2.58086       -4.37974       -0.82596
H         -1.38003       -4.49732        0.46564
H         -3.23538       -2.22518        0.24388
H         -3.35015       -3.46045        1.34400
H          0.54891       -1.57268       -0.69902
H         -0.72535       -1.33657        0.33484
C         -1.02084       -2.94912       -0.98640
C         -1.96238       -3.78680       -0.13403
N         -0.16908       -2.07562       -0.14497
N         -2.71295       -2.92594        0.76679
H          0.37575       -2.58298        0.55910
