23
1sa1msa1ma_41.log	Energy: -916328.3979085
S          1.35816       -1.07525        0.13465
O          0.76441       -2.38022       -0.03354
O          0.72588       -0.21993        1.18197
O          2.84074       -1.03483        0.23967
O          1.13464       -0.21305       -1.24675
H          3.34904        0.35131       -0.18720
H          0.17636        0.01701       -1.31308
S         -2.45940        0.16363       -0.11839
O         -3.19945       -1.02776       -0.47160
O         -1.42598        0.64418       -1.05227
O         -1.82370        0.04101        1.31897
H         -0.81874       -0.12316        1.27971
C         -3.60637        1.49267        0.15581
H         -4.12696        1.66061       -0.78742
H         -4.30725        1.17794        0.92884
H         -3.05319        2.37964        0.46191
N          3.33943        1.36203       -0.57249
H          4.23754        1.62076       -0.97355
C          2.88722        2.29204        0.49419
H          2.72891        3.28700        0.07881
H          1.96063        1.88892        0.90610
H          3.64636        2.32278        1.27469
H          2.63368        1.28537       -1.31308
