38
1sa1msa1dma1eda_53.log	Energy: -1060564.2845651
S          0.79338        1.94429       -0.83913
O          1.73755        2.94744       -1.27708
O          1.07321        0.66812       -1.78714
O          1.03039        1.44337        0.55901
O         -0.64668        2.27222       -0.99699
H          1.39524       -0.05994        0.86068
H         -1.55187        1.67292        0.22525
S         -1.59451       -1.74428       -0.41645
O         -2.80413       -1.01876       -0.81689
O         -1.21791       -1.45582        1.01688
O         -0.41719       -1.55214       -1.30245
H          0.36801       -0.01434       -1.67892
C         -1.97018       -3.48693       -0.47961
H         -2.80632       -3.67899        0.19285
H         -2.23801       -3.73014       -1.50803
H         -1.08811       -4.04825       -0.17055
N         -2.08587        1.33664        1.07418
C         -3.53459        1.50705        0.83057
C         -1.57817        2.06567        2.25565
H         -1.85748        0.32999        1.15959
H         -3.73359        2.56259        0.64005
H         -3.80336        0.90104       -0.03329
H         -4.09002        1.17440        1.70948
H         -1.80245        3.12653        2.13568
H         -2.06072        1.68077        3.15589
H         -0.49771        1.93036        2.29666
H          2.55701       -2.75851        0.30674
H          1.97807       -1.58398       -0.89657
H          4.46882       -1.40420       -0.60784
H          3.63815        0.07412       -0.12093
H          4.85949       -1.88490        1.66565
H          4.89812       -0.25166        1.73267
H          0.61195       -1.49483        1.13753
H          2.04131       -1.12165        1.99548
C          2.45292       -1.69382        0.07686
C          3.79441       -0.97597        0.14367
N          1.56217       -1.08355        1.09253
N          4.30987       -1.04634        1.51408
