27
1sa1msa1a1ma_144.log	Energy: -951823.8851160
S         -1.94906       -1.06050        0.02796
O         -1.89215       -2.51071       -0.09798
O         -2.27498       -0.57214        1.39353
O         -0.81728       -0.31592       -0.55542
O         -3.20133       -0.56582       -0.91086
H         -3.92890       -1.18647       -0.77341
S          2.46389       -0.14282       -0.09839
O          2.17079        1.03303       -0.88774
O          2.06653       -0.17746        1.31206
O          4.07545       -0.34995       -0.09699
H          4.37161       -0.40400        0.82292
C          1.93289       -1.60349       -0.94329
H          0.84732       -1.51080       -1.04127
H          2.42586       -1.61699       -1.91539
H          2.20960       -2.46780       -0.34033
N         -0.37586        1.28682        1.93140
H         -1.16294        0.59391        1.84630
H         -0.43295        1.80450        2.80252
H          0.50730        0.76390        1.87926
H         -0.41963        1.93400        1.06363
N         -0.54900        2.60050       -0.45932
H          0.07042        3.35618       -0.73324
C         -1.94517        2.89924       -0.79962
H         -2.09488        3.11497       -1.86382
H         -2.56136        2.03416       -0.54336
H         -2.29032        3.75857       -0.21773
H         -0.24699        1.76508       -0.95904
