41
1sa1msa1tma1eda_142.log	Energy: -1085204.9237712
S          0.98602       -0.30303       -0.67207
O         -0.49239       -0.27568       -0.86625
O          1.73963       -1.06871       -1.65511
O          1.45721        1.11334       -0.53216
O          1.16653       -0.98177        0.74751
H          0.15262        1.96440       -0.19914
H          2.15053       -1.27245        0.89133
S         -3.49324       -0.96745        0.20321
O         -3.81243        0.16872       -0.65863
O         -3.13080       -0.66430        1.58367
O         -2.40435       -1.88270       -0.47486
H         -1.55681       -1.33905       -0.65030
C         -4.85372       -2.11010        0.19178
H         -5.07963       -2.36535       -0.84297
H         -4.56857       -2.99236        0.76418
H         -5.69682       -1.60110        0.65967
H          5.41692       -2.25693        0.06548
H          3.92019       -2.12455       -0.89446
H          5.35979       -0.18515       -1.30422
H          3.85683        0.30367       -0.52049
H          6.47998        0.14446        0.76817
H          5.40787        1.37910        0.76166
H          3.60174       -2.71584        1.50879
H          4.09325       -1.18596        1.86572
C          4.47879       -1.69575       -0.05921
C          4.79433       -0.23642       -0.36342
N          3.64785       -1.76551        1.15429
N          5.49084        0.36995        0.77590
N         -0.62340        2.62744        0.10455
C         -1.65319        2.66259       -0.96425
H         -1.16838        2.93858       -1.90137
H         -2.10510        1.67549       -1.05542
H         -2.41434        3.39993       -0.69759
C         -1.16769        2.10094        1.38200
H         -1.59825        1.11471        1.21343
H         -0.35147        2.02299        2.10104
H         -1.93687        2.78387        1.75027
C          0.03094        3.94143        0.28584
H          0.82215        3.84099        1.02955
H          0.46619        4.25349       -0.66407
H         -0.70732        4.67438        0.61943
