30
1sa1msa1a1dma_10.log	Energy: -976507.9899388
S         -2.63147       -0.43972        0.01385
O         -3.08225        0.82896        0.58568
O         -1.45333       -0.26687       -0.88537
O         -2.42664       -1.55823        0.94881
O         -3.83739       -0.98001       -0.93081
H         -4.22302       -0.22097       -1.38808
S          2.68155       -0.26223       -0.15315
O          2.28692       -1.18195       -1.23638
O          1.95932       -0.58379        1.12479
O          2.55849        1.18087       -0.49382
C          4.41424       -0.52564        0.17209
H          4.55788       -1.57290        0.43813
H          4.96410       -0.28209       -0.73728
H          4.71388        0.12803        0.99111
N          0.11783       -2.38793        0.27991
H          0.16653       -2.07975       -0.69538
H         -0.85300       -2.22490        0.62838
H          0.39169       -3.36327        0.35051
H          0.80778       -1.77196        0.78194
N         -0.02189        1.92900       -0.03831
C         -0.12643        1.98562        1.43909
C         -0.59713        3.09840       -0.73062
H          0.98201        1.78024       -0.29510
H         -1.18182        1.97722        1.71450
H          0.38614        1.11105        1.84174
H          0.36378        2.89367        1.79408
H         -1.65845        3.16179       -0.48553
H         -0.07914        4.00272       -0.40750
H         -0.47214        2.96524       -1.80526
H         -0.52403        1.07749       -0.37536
