24
1sa1msa2a_41.log	Energy: -927175.0522866
S          1.70649       -1.01590       -0.17270
O          1.63234       -2.45760       -0.09384
O          0.76653       -0.41545       -1.18264
O          1.20266       -0.38778        1.25199
O          3.04605       -0.40928       -0.28511
H          0.24459       -0.56992        1.38040
H          3.02572        1.14190        0.39010
S         -2.20873        0.06187        0.15305
O         -2.11596        1.51432        0.03230
O         -1.53959       -0.54467        1.31084
O         -1.73501       -0.64519       -1.16378
H         -0.70043       -0.64670       -1.21207
C         -3.91491       -0.41796        0.16368
H         -4.36278        0.03110        1.05046
H         -4.38168       -0.03455       -0.74317
H         -3.96553       -1.50525        0.20839
N          2.65300        2.00978        0.85334
H          2.24441        1.69636        1.73277
H          1.85247        2.37381        0.20359
H          3.37746        2.70289        1.01248
N          0.63897        2.54345       -0.88555
H          0.65148        3.30527       -1.55617
H         -0.29369        2.50794       -0.47104
H          0.73308        1.66186       -1.39600
