38
1sa1msa1dma1eda_33.log	Energy: -1060563.6306124
S          2.71367       -0.65588       -0.36250
O          3.44627        0.59281       -0.14903
O          2.90342       -1.69438        0.64846
O          1.26641       -0.43544       -0.67639
O          3.23486       -1.26619       -1.78164
H          4.18702       -1.41660       -1.70736
S         -3.01320        0.18659       -0.35390
O         -2.27023        0.05845        0.94566
O         -2.91649       -1.04358       -1.15523
O         -2.62559        1.42985       -1.07579
C         -4.72931        0.41281        0.07753
H         -5.06377       -0.46918        0.62391
H         -4.81572        1.30767        0.69378
H         -5.29206        0.52723       -0.84913
N         -0.48431       -2.00965        0.73648
C         -0.87348       -3.21793       -0.02087
C          0.10091       -2.27375        2.06785
H          0.20680       -1.47056        0.17115
H         -1.57471       -3.80406        0.57526
H         -1.35900       -2.89479       -0.94121
H          0.02162       -3.80459       -0.23312
H         -0.60327       -2.86098        2.65950
H          1.04802       -2.79861        1.94432
H          0.28719       -1.31788        2.55775
H         -1.29447       -1.35510        0.83465
H         -0.55808        3.47182        0.76132
H         -0.62348        1.80287        1.36472
H          1.38388        3.21400        2.21692
H          1.82248        1.67624        1.47552
H          2.59170        4.21507        0.57391
H          2.96971        2.73096       -0.04067
H         -0.99198        1.87527       -0.97171
H          0.52544        2.67929       -1.18225
C         -0.03753        2.51088        0.77475
C          1.40053        2.66483        1.26976
N         -0.01438        2.01374       -0.62312
N          2.20825        3.33697        0.25152
H          0.48216        1.09996       -0.68170
