33
1sa1msa1ma1dma_186.log	Energy: -1001141.1180197
S         -0.58693       -1.26010       -0.43509
O         -0.03706       -0.04347       -1.08947
O         -1.76573       -1.80625       -1.12704
O          0.51862       -2.39230       -0.56780
O         -0.83476       -1.03546        1.01369
H          1.38774       -2.02127       -0.27846
H         -2.54012       -1.22123        1.32221
S          3.22134        0.26618        0.06541
O          4.21116        0.48701       -0.96798
O          2.74217       -1.10506        0.28854
O          1.97704        1.21874       -0.12910
H          1.17721        0.72003       -0.50889
C          3.84222        0.88767        1.60953
H          4.74596        0.32317        1.84072
H          4.07272        1.94492        1.47915
H          3.08005        0.73923        2.37359
N         -3.48577       -1.43473        0.92433
H         -3.20280       -1.66687       -0.05166
C         -4.40270       -0.26926        0.99177
H         -5.33291       -0.51440        0.47897
H         -4.60250       -0.03629        2.03786
H         -3.89000        0.56786        0.49698
H         -3.86038       -2.26942        1.36969
N         -2.36992        1.86065       -0.36395
C         -1.64701        2.34154        0.80638
C         -2.97824        2.93576       -1.13287
H         -1.71812        1.34582       -0.95101
H         -2.35548        2.77448        1.52383
H         -1.13753        1.50044        1.28376
H         -0.89705        3.11310        0.56689
H         -3.76027        3.42044       -0.53629
H         -2.25952        3.71462       -1.43765
H         -3.44480        2.52667       -2.03307
