38
1sa1msa1dma1eda_359.log	Energy: -1060536.5766649
S          0.86767       -1.55839       -0.27380
O          1.00393       -0.27443       -0.97116
O         -0.29005       -2.36151       -0.72578
O          2.13953       -2.31470       -0.21579
O          0.60443       -1.21776        1.28156
H          3.30366       -1.22841       -0.02420
H         -0.32014       -0.89023        1.36926
S         -2.96876       -0.30084        0.11203
O         -3.47926        1.01157       -0.23293
O         -1.98326       -0.40297        1.19321
O         -2.40250       -0.97300       -1.19038
H         -1.56711       -1.53381       -1.02294
C         -4.33958       -1.35115        0.53493
H         -4.80088       -0.93606        1.43151
H         -5.04106       -1.34641       -0.29911
H         -3.95749       -2.35458        0.72292
N          4.08238       -0.51887        0.13488
C          3.89000        0.13374        1.46009
C          4.10452        0.44183       -0.99776
H          4.94407       -1.06344        0.14363
H          3.07291        0.85801        1.37158
H          3.64402       -0.63454        2.19274
H          4.80998        0.65125        1.73789
H          3.13246        0.93188       -1.02953
H          4.90013        1.17115       -0.83771
H          4.26531       -0.10919       -1.92416
H          1.25303        4.02005       -0.23052
H          1.56572        2.63420       -1.27619
H         -0.68844        3.44478       -1.72672
H         -0.74730        1.84237       -0.99403
H         -1.51631        4.34190        0.27719
H         -2.24854        2.87123        0.30310
H          0.75404        2.51411        1.52741
H          1.00443        1.23273        0.57471
C          0.97145        2.97627       -0.41961
C         -0.51212        2.89212       -0.79001
N          1.32897        2.18117        0.75595
N         -1.35036        3.34287        0.31857
