39
1sa1msa1dma1tma_66.log	Energy: -1050473.4431976
S          1.14881        0.64735       -0.27840
O          1.22848        1.69655        0.74690
O          1.25839       -0.73018        0.30485
O         -0.05546        0.76728       -1.13681
O          2.37007        0.80151       -1.26107
H          3.23209        0.42090       -0.81368
S         -2.06561       -1.84992       -0.01529
O         -2.72821       -1.56152       -1.27777
O         -2.10944       -0.80299        1.01096
O         -0.59441       -2.33818       -0.22949
H          0.13429       -1.62804       -0.02106
C         -2.77216       -3.33815        0.65873
H         -3.83262       -3.14670        0.82542
H         -2.63844       -4.13741       -0.07016
H         -2.26543       -3.57063        1.59470
N          4.46714       -0.24195       -0.11566
C          4.39958       -1.67786       -0.40343
C          4.39508        0.05012        1.32044
H          5.32803        0.14127       -0.49508
H          3.41779       -2.04280       -0.09247
H          4.50105       -1.83771       -1.47916
H          5.18075       -2.24541        0.12147
H          3.43504       -0.30855        1.69899
H          5.20718       -0.43249        1.88200
H          4.43719        1.13027        1.47430
N         -1.91665        2.21087        0.07742
C         -3.26751        1.86713       -0.42483
H         -3.22018        1.76148       -1.50886
H         -3.56116        0.91443        0.01289
H         -3.96660        2.65947       -0.14607
C         -1.85004        2.23409        1.56072
H         -2.19707        1.27225        1.93349
H         -0.80734        2.37954        1.84424
H         -2.47949        3.04898        1.92769
C         -1.40108        3.47347       -0.50579
H         -0.37896        3.61454       -0.15274
H         -1.39745        3.37955       -1.59169
H         -2.04097        4.30239       -0.19388
H         -1.25075        1.47077       -0.27903
