35
1sa1msa1ma1eda_23.log	Energy: -1035904.5629153
S         -0.30050        2.04584        0.16507
O          0.60175        1.31632        1.29395
O         -1.57911        2.41027        0.75844
O          0.57240        3.16389       -0.25410
O         -0.41169        1.03395       -0.93001
H          1.88022        2.24809       -0.85358
H         -1.44722       -0.20391       -0.92848
S          1.24139       -1.99495        0.01959
O          2.28481       -1.11398       -0.56548
O          0.34104       -2.60944       -0.98653
O          0.48202       -1.33271        1.11981
H          0.48491        0.33001        1.26056
C          2.12368       -3.34436        0.78166
H          2.79346       -2.93211        1.53638
H          1.39267       -4.01234        1.23724
H          2.68644       -3.86188        0.00450
N          2.65851        1.55056       -0.97677
H          2.26676        0.58403       -0.89263
C          3.67282        1.74980        0.08394
H          4.43206        0.97220        0.00756
H          4.12010        2.73816       -0.02034
H          3.15531        1.67626        1.03966
H          3.05224        1.64605       -1.90983
H         -3.08890       -2.24744        0.48328
H         -1.89852       -1.13911        1.19692
H         -4.25336       -0.27942        1.48876
H         -3.25739        0.81282        0.52490
H         -5.39345       -0.91535       -0.47206
H         -5.03169        0.62970       -0.87012
H         -1.26540       -1.84684       -1.03821
H         -2.69988       -1.10336       -1.62009
C         -2.66107       -1.24213        0.42355
C         -3.73922       -0.16996        0.52556
N         -1.98495       -1.11227       -0.88916
N         -4.62924       -0.26917       -0.63492
