30
1sa1msa2ma_55.log	Energy: -976491.5305976
S         -1.95547       -1.16964        0.05649
O         -1.55084       -0.78751       -1.31284
O         -0.80665       -1.74486        0.82040
O         -2.71105       -0.15661        0.78043
O         -2.98619       -2.40245       -0.09850
H         -2.52241       -3.13233       -0.53202
S          2.39461       -0.53239       -0.05715
O          2.44047        0.70152       -0.85303
O          2.28559       -1.79735       -0.75696
O          1.25076       -0.37601        1.01357
H          0.42574       -1.01267        0.88399
C          3.83547       -0.53818        0.98374
H          3.84363        0.37895        1.57219
H          3.78977       -1.41833        1.62460
H          4.70371       -0.58159        0.32537
N         -0.75788        2.09096        1.25401
H         -1.56511        1.47152        1.35010
C         -1.00767        3.38526        1.89244
H         -1.21710        3.30735        2.96616
H         -0.14011        4.03700        1.75732
H         -1.86544        3.86377        1.41321
H          0.01820        1.60772        1.70061
N         -0.19195        1.61397       -1.41663
H         -0.40138        1.93045       -0.41286
H          0.81612        1.40246       -1.45088
C         -0.61990        2.60293       -2.42138
H         -0.41463        2.22597       -3.42345
H         -1.69096        2.77472       -2.31275
H         -0.08310        3.53915       -2.26529
H         -0.69847        0.70996       -1.52097
