32
1sa1msa1a1eda_34.log	Energy: -1011239.6163142
S          2.89589        0.07526       -0.03951
O          3.04929       -1.15093       -0.85529
O          2.38718        1.25104       -0.76104
O          2.16588       -0.18835        1.21634
O          4.40487        0.52406        0.35411
H          4.89349       -0.26454        0.62401
S         -2.16938       -1.33462       -0.12539
O         -1.54758       -2.55227       -0.72300
O         -2.66819       -0.35605       -1.09947
O         -1.24372       -0.72479        0.88716
C         -3.58028       -1.91908        0.79881
H         -4.26687       -2.39275        0.09670
H         -3.23716       -2.63590        1.54474
H         -4.05357       -1.06143        1.27740
N          0.96484       -2.60031        0.24404
H          1.22266       -3.47865        0.68361
H          0.87340       -1.86030        0.95316
H          1.72801       -2.26994       -0.38154
H          0.03300       -2.67845       -0.24426
H         -0.40404        3.10250       -1.34802
H         -1.17709        1.51502       -1.61643
H         -2.88607        3.26575       -1.10109
H         -2.85267        1.96820        0.09153
H         -1.77509        4.67037        0.47121
H         -2.76118        3.81276        1.45439
H          0.82639        1.59656       -0.08292
H         -0.21302        2.37452        1.00650
C         -0.98367        2.29944       -0.88443
C         -2.28824        2.82050       -0.29612
N         -0.16333        1.72895        0.21163
N         -1.98719        3.73663        0.80615
H         -0.54322        0.80226        0.51673
