33
1sa1msa1ma1dma_189.log	Energy: -1001141.7872774
S         -1.22486        1.02186       -0.91265
O         -2.31545        1.62582       -1.64565
O          0.14030        1.48101       -1.23479
O         -1.42850        1.02117        0.58047
O         -1.28524       -0.55129       -1.30837
H         -2.35699       -0.07002        1.02173
H         -0.47458       -0.99088       -0.94984
S          2.25611       -1.21305       -0.28980
O          3.09367       -2.23990       -0.86755
O          0.83813       -1.53364       -0.02639
O          2.31150        0.05326       -1.23185
H          1.46774        0.60415       -1.20041
C          2.96305       -0.63470        1.22763
H          2.95189       -1.47521        1.92346
H          3.98920       -0.33410        1.01309
H          2.36167        0.20842        1.60099
N          1.21799        1.99913        1.94583
H          0.33042        1.79791        1.48891
C          1.97546        2.98934        1.17946
H          1.46075        3.95062        1.04570
H          2.93459        3.17723        1.67224
H          2.18347        2.58723        0.18534
H          1.00162        2.35870        2.86941
N         -3.02438       -0.88158        1.29990
C         -2.22297       -2.11291        1.50127
C         -4.06606       -1.00085        0.24797
H         -3.45795       -0.60654        2.18029
H         -1.74567       -2.36717        0.55628
H         -1.44969       -1.91353        2.24260
H         -2.87195       -2.92657        1.82998
H         -3.56702       -1.24994       -0.68833
H         -4.78374       -1.77470        0.52542
H         -4.56121       -0.03615        0.13742
