27
1sa1msa1a1ma_91.log	Energy: -951832.2815190
S          1.99045       -0.64294        0.11803
O          2.55363        0.66629       -0.24693
O          1.34914       -0.72948        1.43080
O          1.13249       -1.18398       -0.97651
O          3.30037       -1.59261        0.17217
H          3.05925       -2.41563        0.61863
S         -2.16732       -0.71019       -0.10293
O         -3.55781       -0.98160       -0.39404
O         -1.58372        0.55295       -0.58636
O         -1.30937       -1.90694       -0.66156
H         -0.33004       -1.65426       -0.75078
C         -1.89252       -0.78528        1.65133
H         -2.44375        0.04153        2.10137
H         -2.27790       -1.74055        2.00803
H         -0.81818       -0.69680        1.83086
N          0.61439        1.77071       -1.82939
H         -0.06932        1.00407       -1.81087
H          0.77607        2.09410       -2.77774
H          0.20321        2.52755       -1.19111
H          1.49029        1.40986       -1.39022
N         -0.59231        3.26813        0.13202
H         -0.76366        4.26740        0.17462
C          0.11360        2.80512        1.33832
H         -0.42763        3.02333        2.26621
H          0.26859        1.72605        1.27111
H          1.09807        3.27507        1.38703
H         -1.49392        2.80045        0.06459
