29
1sa1msa1tma_02.log	Energy: -965660.8684301
S         -1.40101       -1.50154       -0.05922
O         -2.31147       -0.80501       -0.97039
O         -0.44516       -2.41865       -0.67122
O         -0.77449       -0.53806        0.90842
O         -2.31519       -2.39261        0.95028
H         -2.52437       -3.22290        0.50128
S          2.45773        0.07432        0.02983
O          3.75876        0.59872        0.38596
O          1.49083        0.96015       -0.62672
O          1.79820       -0.48569        1.36034
H          0.80998       -0.60198        1.23395
C          2.64384       -1.37999       -0.97349
H          3.08164       -1.06214       -1.92045
H          3.31347       -2.06020       -0.44722
H          1.65720       -1.82716       -1.11702
N         -1.26428        2.00688       -0.00772
C         -0.41998        3.00222        0.69931
H         -0.44597        2.78594        1.76791
H          0.60018        2.90749        0.32989
H         -0.81772        4.00157        0.50982
C         -1.20953        2.17479       -1.48434
H         -0.16694        2.12526       -1.79397
H         -1.76879        1.35454       -1.93429
H         -1.65052        3.14043       -1.74167
C         -2.66419        2.00840        0.49042
H         -3.20334        1.20843       -0.01706
H         -2.65144        1.81471        1.56315
H         -3.11445        2.98190        0.28526
H         -0.88917        1.05811        0.22003
