36
1sa1msa1ma1tma_86.log	Energy: -1025810.3190723
S         -0.56533       -1.55377       -0.63492
O         -0.06793       -0.72153        0.51806
O         -0.41937       -2.98062       -0.44406
O         -1.91131       -1.06728       -1.01631
O          0.32918       -1.08482       -1.89394
H          1.27033       -0.98804       -1.62886
S          2.90330        0.36591        0.28703
O          2.34987        1.71490        0.28370
O          2.84708       -0.37831       -0.97661
O          2.26301       -0.50042        1.43463
H          1.30161       -0.72091        1.14790
C          4.58558        0.40946        0.84540
H          4.95872       -0.61287        0.89428
H          5.14477        0.99433        0.11462
H          4.60898        0.88852        1.82377
N         -3.84881       -0.34942        1.15866
H         -4.84365       -0.50724        1.28245
C         -3.11324       -0.83096        2.33290
H         -3.30050       -1.88483        2.57808
H         -2.04092       -0.72006        2.14925
H         -3.37473       -0.22395        3.20591
H         -3.55700       -0.89052        0.34667
N         -1.79946        1.63724       -0.47691
C         -0.66635        2.03184       -1.35534
H          0.26955        1.73360       -0.88279
H         -0.77513        1.52289       -2.31299
H         -0.68781        3.11594       -1.48747
C         -3.10406        2.10358       -1.00531
H         -3.23301        1.70380       -2.01177
H         -3.88281        1.71727       -0.34658
H         -3.11177        3.19559       -1.02817
C         -1.58405        2.07221        0.92562
H         -2.43552        1.72987        1.51385
H         -0.66417        1.61266        1.28493
H         -1.50154        3.16139        0.94620
H         -1.84655        0.59157       -0.49874
