35
1sa1msa1ma1eda_199.log	Energy: -1035885.2384977
S          0.18286        0.41306        0.93134
O         -1.04925        0.74468        1.67864
O          1.38157        0.27767        1.75926
O         -0.04353       -1.06664        0.32790
O          0.39172        1.30113       -0.24199
H         -0.94496       -1.10892       -0.07325
H          2.06234        1.55995       -0.37601
S         -3.73619       -0.27886       -0.25421
O         -4.68640       -1.12890        0.43292
O         -2.50595       -0.89701       -0.77335
O         -3.35631        0.97437        0.61856
H         -2.42746        0.89444        1.03528
C         -4.55369        0.52718       -1.61035
H         -4.88692       -0.25441       -2.29370
H         -5.40595        1.07709       -1.21149
H         -3.84323        1.19583       -2.09487
N          3.08747        1.75258       -0.26766
H          3.17045        2.45843        0.46139
C          3.70764        2.18113       -1.53367
H          4.76891        2.37839       -1.37588
H          3.58687        1.36388       -2.24356
H          3.21552        3.07962       -1.90740
H          3.52834        0.84834        0.10116
H          2.11410       -2.14203        0.09063
H          2.99338       -3.00736       -1.16315
H          4.49946       -2.64277        0.64042
H          5.01707       -1.58358       -0.68232
H          3.31149       -0.63378        1.52457
H          4.94387       -0.44987        1.47720
H          2.73568       -1.21461       -2.53736
H          1.52945       -0.78821       -1.51992
C          2.90599       -2.03655       -0.65726
C          4.22395       -1.75328        0.05569
N          2.52910       -0.95957       -1.57844
N          4.11582       -0.55458        0.89926
