40
1sa1msa2eda_187.log	Energy: -1095280.0336081
S          0.62866       -0.50693       -1.70403
O          0.37782       -1.55534       -2.67564
O          0.01806       -0.80058       -0.35014
O          2.19980       -0.46224       -1.38801
O          0.31461        0.87612       -2.11430
H          2.43144       -1.32455       -0.89698
H         -0.34865        1.70492       -0.79162
S         -3.21143       -0.27695        0.44289
O         -3.69245        0.29801       -0.80170
O         -2.54586        0.65624        1.37169
O         -2.29612       -1.52118        0.19815
H         -1.33696       -1.24666       -0.11240
C         -4.55103       -1.06270        1.30225
H         -4.98178       -1.81229        0.63878
H         -4.16251       -1.51637        2.21317
H         -5.28083       -0.28608        1.53216
H          4.41589       -1.81690        1.80835
H          3.35423       -1.33312        3.13266
H          2.30337       -3.18690        2.14627
H          1.37632       -1.78022        1.57653
H          3.40700       -3.19121       -0.00833
H          1.78906       -3.19764       -0.24604
H          4.09479        0.55839        1.79736
H          3.21995        0.01779        0.52381
C          3.43503       -1.36524        2.04076
C          2.34247       -2.28855        1.51592
N          3.28950       -0.00065        1.53791
N          2.56300       -2.63537        0.10015
H          0.40398        2.55246        1.94932
H          0.89830        1.05268        1.12833
H          2.68000        2.79139        0.94441
H          2.02811        2.34000       -0.63618
H          1.53837        4.84989        0.77508
H          1.84006        4.59165       -0.81268
H         -1.36953        1.75515        0.56005
H         -0.71469        3.18452       -0.09817
C          0.65411        2.10518        0.98328
C          1.79302        2.85084        0.30233
N         -0.54706        2.19774        0.11423
N          1.36452        4.21969        0.00009
