36
1sa1msa2dma_104.log	Energy: -1025812.9451367
S         -1.59696       -0.80580       -1.09862
O         -1.98554       -1.03217        0.30784
O         -0.06385       -0.96632       -1.17723
O         -2.25335       -1.61315       -2.10397
O         -1.83803        0.71003       -1.44050
H         -1.99747        1.29978       -0.58142
S          2.49005        0.82091       -0.19907
O          3.02873       -0.51273        0.11351
O          1.76414        1.47551        0.88778
O          1.64386        0.78042       -1.50451
H          0.84835        0.08130       -1.43304
C          3.82812        1.85953       -0.72650
H          4.32270        1.38019       -1.57063
H          3.41578        2.82767       -1.00926
H          4.50771        1.95805        0.12028
N          0.85574       -2.04198        1.08268
C          0.42710       -1.34661        2.31627
C          0.54429       -3.48524        1.05186
H          0.39367       -1.59349        0.24238
H          0.92026       -1.80180        3.17741
H          0.71056       -0.29687        2.22766
H         -0.65633       -1.43444        2.39276
H          1.03153       -3.98643        1.89014
H         -0.53820       -3.60095        1.11739
H          0.89663       -3.89961        0.10738
H          1.85345       -1.85487        0.91695
N         -2.36997        2.18191        0.60302
C         -1.52803        1.86903        1.76150
C         -3.79262        1.92878        0.84956
H         -2.23515        3.15375        0.33881
H         -1.65536        0.80765        1.98445
H         -0.47949        2.04498        1.51163
H         -1.80398        2.46055        2.64570
H         -3.92625        0.85626        1.01299
H         -4.16893        2.47630        1.72437
H         -4.37013        2.21498       -0.03217
