39
1sa1msa1dma1tma_55.log	Energy: -1050475.5380690
S         -1.00057       -0.68899       -0.77949
O         -0.29410       -0.13906        0.46220
O         -1.94735        0.33478       -1.25514
O         -0.04217       -1.19171       -1.75430
O         -1.82002       -1.93266       -0.26848
H         -2.65721       -1.62139        0.25948
S          3.10983       -0.78570        0.40000
O          4.32854       -1.00544        1.15147
O          2.86911        0.53917       -0.18128
O          1.90017       -1.14882        1.35436
H          1.02239       -0.80403        0.98395
C          2.97710       -1.98915       -0.90039
H          3.78250       -1.78684       -1.60763
H          3.09531       -2.97572       -0.45241
H          1.99718       -1.87482       -1.37073
N         -3.96328       -1.10109        0.97634
C         -4.94697       -0.85510       -0.08223
C         -3.62750        0.10825        1.73144
H         -4.31426       -1.81088        1.61262
H         -4.49809       -0.18326       -0.81843
H         -5.18444       -1.79733       -0.58059
H         -5.87298       -0.40629        0.30337
H         -3.18504        0.82819        1.03826
H         -4.50769        0.56241        2.20792
H         -2.88374       -0.13354        2.49358
N          0.27600        2.43086       -0.07070
C         -1.05025        3.07291        0.09867
H         -1.76325        2.54391       -0.53455
H         -1.34973        2.98332        1.14390
H         -0.97581        4.12678       -0.17936
C          1.29292        2.99939        0.84794
H          0.94347        2.87525        1.87387
H          2.22551        2.45352        0.70745
H          1.42123        4.06107        0.62395
C          0.72175        2.46284       -1.48988
H          1.64912        1.89598       -1.56426
H         -0.05097        1.99259       -2.09917
H          0.87116        3.50320       -1.78859
H          0.14244        1.40969        0.17573
