40
1sa1msa2eda_166.log	Energy: -1095283.5603180
S          0.99743       -0.14957       -0.12584
O          1.94175        0.86323       -0.72596
O         -0.11591       -0.27531       -1.24636
O          1.66906       -1.44734        0.02814
O          0.35409        0.37331        1.08845
H          3.87723       -1.43594       -1.10973
H         -1.36223        1.06537        0.68458
S         -3.32523       -1.19976        0.02656
O         -3.89405        0.02483       -0.61633
O         -3.05853       -1.00760        1.45829
O         -2.14441       -1.72086       -0.73554
H         -0.88423       -0.90826       -0.99308
C         -4.56375       -2.47033       -0.14990
H         -5.46268       -2.13671        0.36880
H         -4.75871       -2.61518       -1.21230
H         -4.17334       -3.38297        0.30069
H         -2.52554        3.71639        0.08389
H         -2.26740        3.02657        1.70635
H         -0.39858        4.61383        0.96972
H          0.16567        2.98240        1.35329
H          0.33006        4.26781       -1.16529
H          0.89550        2.76363       -0.74799
H         -2.84619        1.29232       -0.07867
H         -1.40854        1.76341       -0.79779
C         -1.87723        3.07709        0.68800
C         -0.42488        3.56904        0.64268
N         -1.90845        1.72276        0.10064
N          0.10104        3.39708       -0.70792
H          3.71485       -0.19556        1.45906
H          5.38037       -0.58268        1.89549
H          5.20000        0.97600       -0.11235
H          6.08178       -0.54120       -0.45214
H          3.22987        0.12859       -1.11978
H          4.50906       -0.31537       -2.18038
H          4.84783       -2.75590        1.51757
H          3.33015       -2.32940        0.99704
C          4.61144       -0.73112        1.13126
C          5.11604       -0.11093       -0.17625
N          4.32498       -2.14311        0.90790
N          4.13729       -0.44710       -1.24331
