32
1sa1msa1a1eda_94.log	Energy: -1011237.9693341
S         -2.75702       -0.03233        0.10179
O         -2.56263       -0.66492        1.40179
O         -2.55411        1.43080        0.03599
O         -2.00903       -0.71809       -0.99124
O         -4.33411       -0.26358       -0.20594
H         -4.58433        0.30028       -0.94997
S          2.19004       -1.09438       -0.19832
O          2.20408       -0.43496       -1.51408
O          1.95365       -2.56322       -0.23447
O          1.19896       -0.44191        0.73300
C          3.79099       -0.84739        0.54011
H          4.53749       -1.28870       -0.12071
H          3.94366        0.22895        0.63860
H          3.80131       -1.33479        1.51502
N         -0.69085       -2.65690        0.43013
H         -0.75526       -2.09109        1.28041
H          0.31985       -2.78191        0.17167
H         -1.17271       -3.54105        0.56312
H         -1.17805       -2.07904       -0.29295
H          1.90816        2.31721       -1.35208
H          0.48416        3.36386       -1.61586
H          1.58292        4.23166        0.30449
H          0.15119        3.39115        0.90636
H          2.24483        2.90186        2.13177
H          1.68762        1.51823        1.45053
H          0.03716        0.95432       -1.78839
H          0.44247        0.72781       -0.22496
C          0.94875        2.63971       -0.94268
C          1.14077        3.24028        0.44365
N          0.06802        1.44351       -0.89361
N          2.06168        2.44304        1.24678
H         -0.90816        1.65275       -0.60251
