32
1sa1msa1a1eda_121.log	Energy: -1011232.1903609
S          1.24243        1.73349       -0.07408
O         -0.13736        1.96852        0.43605
O          2.16141        1.23234        0.94220
O          1.22986        0.96763       -1.33746
O          1.83006        3.19791       -0.43173
H          1.26655        3.59793       -1.10807
S         -2.73276       -0.33927       -0.01460
O         -2.57047       -0.39962        1.43274
O         -2.14078       -1.42966       -0.79628
O         -2.25953        1.04737       -0.57569
H         -1.37808        1.38802       -0.16595
C         -4.45782       -0.24927       -0.42075
H         -4.55229       -0.11453       -1.49781
H         -4.90561       -1.19254       -0.10712
H         -4.89382        0.58859        0.12216
N          0.39489       -0.98802        2.12401
H         -0.58504       -0.76448        2.28887
H          0.93900       -0.13281        2.22512
H          0.71110       -1.64750        2.82646
H          1.62191       -3.52010       -0.24973
H          1.58645       -2.94873       -1.93873
H          3.85356       -2.80671       -0.99042
H          3.24410       -1.20826       -1.42918
H          4.32640       -1.66436        0.90100
H          3.02761       -0.68228        0.82563
H         -0.26181       -1.95222       -0.78934
H          0.65309       -1.47622        0.52720
C          1.73988       -2.64904       -0.89835
C          3.12508       -2.03780       -0.71563
N          0.69075       -1.66888       -0.53450
N          3.34061       -1.63990        0.67069
H          0.86011       -0.75313       -0.99274
