23
1sa1msa1ma_63.log	Energy: -916315.5823955
S          2.18830       -0.48227        0.11811
O          3.51689       -0.88981        0.47553
O          1.25746        0.02262        1.11308
O          2.27717        0.72404       -0.95084
O          1.53139       -1.63969       -0.70099
H          3.02025        0.56530       -1.55158
H          0.55350       -1.45066       -0.86912
S         -2.02727       -0.87309       -0.06102
O         -2.96936       -1.96196        0.01929
O         -0.92807       -0.94904       -1.04451
O         -1.37457       -0.69344        1.38048
H         -0.45629       -0.34061        1.31270
C         -2.86013        0.66512       -0.32614
H         -3.29653        0.62353       -1.32495
H         -3.63809        0.74971        0.43303
H         -2.10356        1.45594       -0.23295
N         -0.23225        2.54135        0.13683
H          0.21422        2.37047        1.03201
C         -0.52142        3.96419       -0.03727
H          0.35990        4.61888        0.01383
H         -1.00152        4.11927       -1.00799
H         -1.22859        4.28734        0.73182
H          0.42792        2.21948       -0.56400
