38
1sa1msa1dma1eda_365.log	Energy: -1060533.0368401
S         -0.56129        0.97096        0.65326
O          0.80589        0.97466        1.20593
O         -1.32828        2.20019        0.83996
O         -0.42137        0.84268       -0.94394
O         -1.32757       -0.24286        1.08338
H          0.14175        0.05505       -1.14268
H         -2.90046        0.23016        0.99248
S          1.88278       -2.05512       -0.10953
O          2.92157       -2.97277       -0.51348
O          1.06614       -1.41273       -1.14856
O          2.55803       -0.93551        0.78232
H          1.92053       -0.18115        0.95182
C          0.77011       -2.85708        1.02340
H          0.29921       -3.67711        0.47951
H          1.35708       -3.23664        1.85961
H          0.02531       -2.12569        1.34603
N          3.07642        2.52412       -0.41497
C          4.33869        2.16703        0.20911
C          2.86942        1.84488       -1.68188
H          2.31026        2.30638        0.21357
H          5.16713        2.52996       -0.41078
H          4.41745        2.65301        1.18583
H          4.47486        1.07971        0.34713
H          3.60964        2.19593       -2.41056
H          2.96141        0.74585       -1.61738
H          1.87558        2.08494       -2.06889
H         -4.62523        1.54683       -1.03746
H         -2.92546        1.03625       -1.19730
H         -4.48993       -0.64731       -2.23432
H         -3.56888       -1.32470       -0.89040
H         -6.39805       -0.58487       -0.82778
H         -5.67562       -1.94354       -0.28001
H         -3.50843        1.75219        1.06288
H         -4.59975        0.44013        1.14213
C         -3.89167        0.78738       -0.75507
C         -4.35643       -0.60940       -1.14664
N         -3.74324        0.81626        0.72476
N         -5.56009       -0.94251       -0.38140
