32
1sa1msa1a1eda_106.log	Energy: -1011231.7707516
S          2.20401        0.65072        0.44114
O          2.77079       -0.40953        1.25247
O          1.27949        0.04420       -0.66890
O          1.49107        1.73486        1.11268
O          3.31622        1.33169       -0.42368
H          3.93758        0.59237       -0.78540
S         -1.52835       -1.80921       -0.00412
O         -2.20908       -1.36896       -1.22895
O         -1.83315       -0.94533        1.17512
O         -0.04637       -1.98754       -0.17764
H          0.76083       -0.83288       -0.40177
C         -2.11758       -3.43513        0.41724
H         -3.19482       -3.36927        0.57044
H         -1.88470       -4.10300       -0.41206
H         -1.61371       -3.75593        1.32863
N          4.76184       -0.74463       -1.15110
H          4.40056       -1.21741       -1.97368
H          4.57359       -1.33454       -0.34316
H          5.76678       -0.64979       -1.25222
H         -1.06935        2.83604       -0.96799
H         -1.02180        1.08206       -1.25478
H         -3.21905        2.05581       -1.98909
H         -3.39685        0.86361       -0.70383
H         -3.65082        3.76889       -0.41041
H         -4.61193        2.58582        0.18099
H         -0.27512        1.81050        0.99625
H         -1.89280        2.28667        1.26783
C         -1.51753        1.87639       -0.69627
C         -3.02263        1.86659       -0.92684
N         -1.26991        1.65702        0.75201
N         -3.65090        2.83247       -0.02072
H         -1.51144        0.66078        1.00286
