40
1sa1msa2eda_219.log	Energy: -1095278.8105796
S          1.75903        0.27369        1.59023
O          0.43999        0.23077        0.85726
O          1.64334        0.57764        2.99945
O          2.38307       -1.16848        1.47273
O          2.65135        1.18064        0.79912
H          2.56241       -1.39564        0.48072
H          1.87769        2.21523       -0.02464
S         -2.76773       -0.33877        0.38649
O         -2.44988       -0.82412       -0.95775
O         -2.99383        1.10035        0.52039
O         -1.71266       -0.84053        1.42291
H         -0.77246       -0.39535        1.27427
C         -4.20023       -1.20187        0.98343
H         -5.02961       -0.92534        0.33194
H         -4.00437       -2.27225        0.92919
H         -4.38858       -0.88636        2.00907
H          2.16761       -3.45689       -2.29247
H          2.11833       -3.76193       -0.54620
H         -0.16441       -3.49642       -1.39806
H          0.23484       -2.16077       -0.30989
H          0.12026       -2.00256       -3.21907
H         -0.69371       -1.13859       -2.09542
H          3.73584       -1.99287       -1.25171
H          2.42419       -1.07036       -1.63631
C          1.92820       -3.00839       -1.31686
C          0.46046       -2.59899       -1.28617
N          2.75721       -1.82753       -1.04039
N          0.20178       -1.57536       -2.30107
H          1.07334        3.17832       -2.73391
H          1.73076        1.58995       -2.25931
H         -0.77979        1.53983       -2.78447
H         -0.34156        0.96576       -1.17287
H         -1.67541        3.47149       -1.78636
H         -1.88327        2.43245       -0.52624
H          2.10906        3.72015       -0.75947
H          0.55135        3.31687       -0.27070
C          1.03555        2.38399       -1.98312
C         -0.38981        1.85032       -1.80903
N          1.44115        2.95893       -0.67239
N         -1.19005        2.86767       -1.13298
