32
1sa1msa1a1eda_61.log	Energy: -1011238.7589857
S         -2.67679       -0.41699       -0.19379
O         -2.39956        0.71574       -1.10550
O         -2.59706       -1.75498       -0.76048
O         -1.90439       -0.27820        1.07452
O         -4.24380       -0.25111        0.20796
H         -4.42236        0.68886        0.34090
S          2.32408       -1.08949       -0.10310
O          2.17641       -1.65670        1.26713
O          2.41579        0.39763       -0.10691
O          1.27787       -1.58341       -1.02865
C          3.89551       -1.67381       -0.71126
H          4.67342       -1.32774       -0.03052
H          3.86528       -2.76314       -0.74030
H          4.04560       -1.26588       -1.71094
N         -0.38959       -2.55148        1.02240
H         -0.30525       -2.58692       -0.00054
H         -0.80375       -3.40530        1.38241
H          0.57635       -2.37082        1.37416
H         -1.00034       -1.72531        1.22584
H         -1.00254        2.86347        0.66478
H         -0.04781        1.55180        1.37098
H          0.99969        3.79741        1.85285
H          2.05260        2.76517        0.87266
H          0.50782        5.05442       -0.10210
H          2.08027        4.68411       -0.36490
H         -0.75408        1.26964       -0.99434
H          0.34279        2.51750       -1.35769
C         -0.03331        2.35856        0.63854
C          1.11684        3.33143        0.86616
N          0.12186        1.75589       -0.70781
N          1.15675        4.28769       -0.24281
H          0.93650        1.10287       -0.68082
