38
1sa1msa1dma1eda_94.log	Energy: -1060562.3818058
S         -0.91772        1.64783        0.41887
O         -0.99003        0.34339        1.35915
O         -0.60020        1.18026       -0.94092
O         -2.29633        2.17555        0.56473
O          0.13740        2.52959        0.95952
H         -3.25741        0.87706        0.58222
H          1.53807        1.92559        0.11347
S          1.62037       -1.78821        0.09118
O          2.32900       -1.09029       -1.01644
O          0.43921       -2.55960       -0.32605
O          1.34457       -0.83609        1.21516
H         -0.11701       -0.14774        1.33251
C          2.78809       -2.96674        0.75196
H          3.03786       -3.67443       -0.03887
H          3.67663       -2.42775        1.08129
H          2.31528       -3.47766        1.59102
N          2.33685        1.60106       -0.47395
C          3.58010        1.68075        0.31533
C          2.33721        2.37790       -1.72890
H          2.16962        0.59380       -0.70242
H          3.76521        2.71823        0.59861
H          3.44986        1.06607        1.20622
H          4.40993        1.29865       -0.28122
H          2.51174        3.43121       -1.50317
H          3.12087        1.99842       -2.38675
H          1.35857        2.25234       -2.19206
H         -4.89537       -1.06504       -0.95367
H         -4.07896        0.41292       -1.53030
H         -2.91320       -1.77726       -2.22401
H         -1.88106       -0.64476       -1.34075
H         -2.93615       -3.14794       -0.32989
H         -1.49442       -2.40294       -0.05521
H         -4.69633        0.09628        1.01148
H         -3.26087       -0.79206        0.96090
C         -3.98215       -0.46679       -0.89221
C         -2.74667       -1.30649       -1.24807
N         -3.81517       -0.02596        0.52079
N         -2.49792       -2.24955       -0.16256
