36
1sa1msa2dma_55.log	Energy: -1025817.8190278
S          1.04515        0.55890        0.60205
O          1.04668       -0.78666       -0.05710
O          0.96397        1.64386       -0.41907
O         -0.00012        0.68898        1.62626
O          2.42947        0.68049        1.32044
H          3.20477        0.32141        0.69027
S         -2.36344       -1.65460       -0.19142
O         -3.34949       -2.61467       -0.63731
O         -2.68926       -0.22818       -0.36306
O         -1.01689       -1.98102       -0.93206
H         -0.21776       -1.43846       -0.59335
C         -1.98213       -1.91104        1.52656
H         -2.90708       -1.74597        2.08069
H         -1.64134       -2.93962        1.64427
H         -1.21527       -1.18926        1.82134
N         -1.64097        2.30172       -0.31339
C         -1.91744        3.12244        0.88346
C         -2.18690        2.83704       -1.57566
H         -0.59949        2.15891       -0.40194
H         -2.99626        3.20233        1.02799
H         -1.44902        2.63049        1.73578
H         -1.48583        4.11475        0.74234
H         -3.27008        2.93535       -1.49016
H         -1.73722        3.81033       -1.77793
H         -1.94590        2.14126       -2.37896
H         -2.01153        1.34167       -0.17452
N          4.25938       -0.27442       -0.21626
C          3.93571        0.07819       -1.60466
C          4.24853       -1.72327        0.01711
H          5.17208        0.10268        0.02329
H          2.92718       -0.27898       -1.82389
H          3.94211        1.16444       -1.71398
H          4.64135       -0.36739       -2.31834
H          3.22949       -2.08455       -0.13953
H          4.93286       -2.25779       -0.65487
H          4.52919       -1.92406        1.05334
