41
1sa1msa1tma1eda_62.log	Energy: -1085217.0940412
S         -2.83831       -0.34501        0.10063
O         -2.81220       -1.78674       -0.24858
O         -1.85925       -0.00950        1.15459
O         -2.81229        0.54792       -1.05749
O         -4.25874       -0.10762        0.85682
H         -4.96688       -0.29595        0.22611
S          3.07883        0.05155        0.04341
O          2.55366        0.69207       -1.18173
O          3.21002       -1.41738       -0.04136
O          2.29702        0.48606        1.25211
C          4.73003        0.68691        0.29893
H          5.33587        0.40392       -0.56240
H          4.67294        1.77192        0.38956
H          5.13043        0.24477        1.21148
H          0.94439        2.72126       -1.03018
H         -0.29813        1.50438       -1.33417
H         -1.17251        3.80126       -1.82561
H         -2.07915        2.97926       -0.55597
H         -0.13770        5.14090       -0.15103
H         -1.65634        5.00211        0.44100
H          0.98417        1.39292        0.88829
H          0.02710        2.75602        1.27998
C         -0.03649        2.36123       -0.71387
C         -1.11357        3.43543       -0.79284
N          0.08269        1.91370        0.69674
N         -0.82504        4.47939        0.19418
H         -0.70512        1.28277        0.94405
N         -0.23587       -2.65423       -0.16395
C         -0.09512       -4.06603       -0.58651
H         -0.53772       -4.71225        0.17210
H         -0.61330       -4.20550       -1.53583
H          0.96623       -4.29356       -0.70144
C          0.27335       -1.72637       -1.21164
H         -0.31664       -1.87015       -2.11708
H          0.15168       -0.70574       -0.85382
H          1.33474       -1.91151       -1.37536
C          0.40726       -2.40397        1.15733
H          0.15743       -1.39128        1.46909
H          0.00654       -3.12093        1.87515
H          1.48897       -2.49585        1.04655
H         -1.25634       -2.43719       -0.07720
