27
1sa1msa1a1ma_34.log	Energy: -951834.7024317
S         -1.80721        0.30527       -0.48595
O         -1.25062       -1.02919       -0.91143
O         -1.57667        1.38042       -1.44316
O         -3.36444        0.08503       -0.40213
O         -1.31687        0.62773        0.88494
H         -3.52550       -0.65961        0.27182
H         -0.08075        1.76556        0.61943
S          2.08192       -0.77464       -0.00357
O          2.23039       -0.24146        1.34710
O          1.97853        0.24652       -1.06575
O          0.91736       -1.78359       -0.11067
H         -0.04138       -1.38480       -0.46644
C          3.47114       -1.81695       -0.37351
H          4.36633       -1.19721       -0.31776
H          3.50512       -2.61094        0.37224
H          3.33851       -2.22471       -1.37504
N         -3.37492       -1.85405        1.43029
H         -2.64546       -1.48252        2.03399
H         -3.00735       -2.68837        0.98349
H         -4.16859       -2.11599        2.00426
N          0.61616        2.36163        0.10711
H          1.15424        1.68815       -0.47668
C          1.50517        3.11393        1.01493
H          2.19624        3.72099        0.43017
H          0.90538        3.75196        1.66367
H          2.05923        2.38858        1.61099
H          0.06057        2.94029       -0.52344
