36
1sa1msa2dma_210.log	Energy: -1025798.6363771
S         -0.45507       -0.38134       -0.61715
O          0.32528        0.86859       -0.46169
O         -1.68462       -0.22282       -1.40460
O          0.43681       -1.38560       -1.47237
O         -0.71434       -1.03637        0.69776
H          1.35369       -1.40269       -1.10003
H         -2.30000       -1.44612        0.73350
S          3.60873       -0.06036        0.13270
O          4.50755        0.53512       -0.83391
O          2.84419       -1.24970       -0.27334
O          2.61136        1.01010        0.72518
H          1.70573        0.96505        0.27466
C          4.51648       -0.47211        1.60216
H          5.26841       -1.20691        1.31361
H          4.98920        0.43655        1.97452
H          3.82258       -0.88542        2.33306
N         -1.86611        2.99354        0.35129
C         -2.52538        3.72901       -0.71143
C         -2.74272        2.04570        0.99995
H         -1.05356        2.50662       -0.01487
H         -3.31992        4.35627       -0.28992
H         -1.80591        4.38832       -1.20329
H         -2.97812        3.07519       -1.47916
H         -3.49066        2.57495        1.60411
H         -3.29279        1.40286        0.28056
H         -2.15710        1.40161        1.66396
N         -3.28326       -1.55720        0.35363
C         -4.30844       -1.29360        1.38131
C         -3.38035       -2.87801       -0.30740
H         -3.26339       -0.82825       -0.37570
H         -4.23203       -2.05216        2.16129
H         -4.13304       -0.30664        1.80886
H         -5.29941       -1.33028        0.92636
H         -3.24918       -3.65965        0.44162
H         -4.35583       -2.97679       -0.78583
H         -2.58895       -2.94027       -1.05438
