40
1sa1msa2eda_207.log	Energy: -1095279.4572406
S          0.02521       -1.23113        0.81781
O          1.23548       -2.04261        0.88701
O         -1.23543       -1.96728        1.06068
O          0.08775        0.03582        1.58662
O         -0.01966       -0.77822       -0.74496
H          1.39040        0.99971        1.10649
H         -0.89364       -0.35511       -0.92417
S         -3.70960       -0.10644       -0.44255
O         -4.46080       -0.95536       -1.34482
O         -2.42683        0.43642       -0.92449
O         -3.48975       -0.79103        0.95426
H         -2.58344       -1.26610        1.02077
C         -4.72489        1.26447        0.05248
H         -4.97359        1.81813       -0.85336
H         -5.62616        0.86588        0.51785
H         -4.15997        1.88127        0.75013
H          3.31589       -2.58727       -1.07115
H          4.51371       -1.99155       -2.22053
H          5.40705       -2.00399        0.03636
H          5.34643       -0.35469       -0.61772
H          3.16773       -1.38103        1.07166
H          4.48122       -0.62088        1.69936
H          2.84230       -0.68416       -2.88243
H          1.99174       -0.82697       -1.50888
C          3.85152       -1.68731       -1.40305
C          4.73127       -1.18925       -0.26161
N          2.92538       -0.65391       -1.87323
N          3.91407       -0.71324        0.86238
H          2.61757        2.36718       -1.21436
H          1.15757        1.36876       -1.17675
H          0.54837        3.79968       -1.20151
H          0.01409        3.00283        0.28041
H          2.30559        4.80915        0.04292
H          1.08972        4.83125        1.13560
H          2.94156        0.72465        0.53204
H          2.53440        2.22792        1.24747
C          1.73690        2.10584       -0.62277
C          0.89961        3.33050       -0.27364
N          2.19627        1.47874        0.63622
N          1.68272        4.22113        0.58646
