40
1sa1msa2eda_284.log	Energy: -1095270.5615848
S          0.48386       -1.79668       -0.20216
O          0.47306       -0.70933       -1.18503
O         -0.70334       -2.68004       -0.27531
O          1.76148       -2.54329       -0.16513
O          0.44226       -1.11346        1.26110
H          2.94643       -1.64251       -0.75354
H         -0.43148       -0.67066        1.35383
S         -3.09878       -0.19442        0.11491
O         -3.16455        0.87460       -0.86567
O         -2.09458       -0.07403        1.18226
O         -2.97104       -1.59161       -0.58356
H         -2.03885       -2.01782       -0.48482
C         -4.69380       -0.36218        0.87867
H         -4.91357        0.58541        1.37129
H         -5.42439       -0.56804        0.09662
H         -4.64818       -1.17688        1.60042
H          0.49028        1.44466        0.10228
H          0.79087        2.38262        1.56191
H         -1.54191        2.64239        0.86966
H         -0.69999        4.19369        0.67715
H         -1.43860        2.33926       -1.44771
H         -1.80517        3.91384       -1.32081
H          1.40058        3.31303       -1.13511
H          1.85730        4.03365        0.24095
C          0.57206        2.46633        0.49083
C         -0.77094        3.16941        0.28774
N          1.69968        3.12124       -0.17989
N         -1.07151        3.23757       -1.14222
H          4.11296        1.08350       -1.18689
H          2.38825        0.64616       -1.04444
H          3.35030        1.57029        1.09347
H          2.69682       -0.06151        1.27578
H          5.51590        0.67603        1.28396
H          4.73724       -0.46553        2.15674
H          3.88518       -1.10958       -2.05815
H          4.57030       -1.22603       -0.51917
C          3.39421        0.42378       -0.69463
C          3.50335        0.52241        0.82251
N          3.72728       -0.98584       -1.06145
N          4.79639       -0.03721        1.24105
