33
1sa1msa1ma1dma_61.log	Energy: -1001155.2124660
S          1.76566       -0.19724       -1.09498
O          2.14443        0.40570        0.22683
O          0.62210        0.57117       -1.68214
O          2.87693       -0.39113       -1.99952
O          1.11782       -1.61438       -0.73637
H          1.49107       -1.94472        0.16603
S         -2.39412       -0.33982       -0.19456
O         -3.81569       -0.08061       -0.13579
O         -1.54961        0.18693        0.89774
O         -1.85105        0.20486       -1.55942
H         -0.82051        0.27181       -1.59487
C         -2.09879       -2.08831       -0.28777
H         -1.03018       -2.23738       -0.45456
H         -2.42615       -2.52595        0.65601
H         -2.68737       -2.47819       -1.11822
N          1.91107       -2.16649        1.69033
H          2.49424       -2.95674        1.94337
C          0.69786       -2.09869        2.51266
H          0.89923       -1.94308        3.57916
H          0.06654       -1.28446        2.14549
H          0.13893       -3.03105        2.39976
H          2.46463       -1.31788        1.78779
N          0.29193        2.23484        0.83024
C          0.14737        3.30975       -0.17473
C          0.46105        2.70614        2.21786
H         -0.52282        1.59289        0.78831
H          1.02805        3.95281       -0.13708
H          0.07594        2.84255       -1.15625
H         -0.75057        3.89056        0.04270
H          1.37818        3.29263        2.28932
H         -0.39566        3.31787        2.50526
H          0.52773        1.83881        2.87505
H          1.09880        1.60044        0.57258
