30
1sa1msa1a1dma_71.log	Energy: -976494.4582243
S          0.69976       -0.78350       -0.02529
O          1.13437       -0.29437        1.28837
O          0.00810        0.28857       -0.80882
O          1.79006       -1.41386       -0.79828
O         -0.35955       -1.95565        0.17084
H         -1.19260       -1.58629        0.55227
S         -3.29150        0.31601        0.11740
O         -3.49444        1.59818        0.76258
O         -2.67950       -0.75982        0.91079
O         -2.49640        0.46986       -1.23653
H         -1.48991        0.39876       -1.08424
C         -4.84111       -0.27152       -0.52163
H         -5.50826       -0.39369        0.33214
H         -5.23183        0.47711       -1.21058
H         -4.67196       -1.22286       -1.02449
N          2.05358        2.34109        0.19018
H          1.67591        2.13828        1.11358
H          1.31089        2.05949       -0.45191
H          2.18373        3.34395        0.10967
N          3.85741        0.22107       -0.11545
C          4.35080       -0.19233        1.21480
C          4.90531        0.41913       -1.13197
H          3.16197       -0.49230       -0.44705
H          5.01215        0.57988        1.61270
H          3.48220       -0.32730        1.86029
H          4.89328       -1.13476        1.12251
H          5.60073        1.19056       -0.79592
H          5.44291       -0.51731       -1.28961
H          4.43497        0.72903       -2.06558
H          3.27578        1.10722       -0.00936
