41
1sa1msa1tma1eda_214.log	Energy: -1085197.7364660
S         -0.34300        0.48549        0.75090
O         -1.50568        0.34081        1.65137
O          0.95923        0.28708        1.37584
O         -0.44267       -0.70126       -0.32832
O         -0.41950        1.75534       -0.03397
H         -1.36428       -0.74332       -0.68066
H          0.91075        2.17457       -0.68235
S         -4.21184       -0.53895       -0.25766
O         -4.73902       -1.77358        0.28832
O         -3.03431       -0.62343       -1.13595
O         -3.93489        0.52409        0.87206
H         -2.97037        0.47983        1.19853
C         -5.49945        0.30577       -1.14282
H         -5.81617       -0.35682       -1.94872
H         -6.32076        0.48827       -0.45009
H         -5.09733        1.23857       -1.53597
H          3.41101        3.79977       -0.52647
H          2.22099        3.45145        0.75631
H          4.43866        2.13717        0.95590
H          2.96405        1.15218        0.93816
H          4.91545        1.34578       -1.20129
H          3.99445        0.05215       -0.68805
H          1.55316        3.29453       -1.77663
H          2.33549        1.80901       -1.61231
C          2.77552        3.02848       -0.08253
C          3.60150        1.80139        0.33295
N          1.81487        2.56487       -1.11918
N          4.00015        1.06922       -0.86533
N          3.77801       -1.81320       -0.17786
C          2.61454       -2.29952       -0.91192
H          1.72553       -1.73672       -0.61941
H          2.77658       -2.16466       -1.98615
H          2.42551       -3.37123       -0.72194
C          4.98025       -2.53684       -0.56028
H          5.15285       -2.42809       -1.63571
H          5.84565       -2.12808       -0.02910
H          4.91076       -3.61551       -0.32959
C          3.55370       -1.88811        1.26237
H          4.40416       -1.44284        1.78931
H          2.64771       -1.33499        1.52146
H          3.44068       -2.93131        1.60812
