33
1sa1msa1ma1dma_46.log	Energy: -1001155.6958553
S          1.50442       -0.48603       -0.70697
O          1.22215        0.99525       -0.75757
O          1.22035       -1.00423        0.66267
O          0.82976       -1.25221       -1.74795
O          3.05295       -0.59222       -0.94803
H          3.52315        0.17459       -0.43154
S         -2.17506        1.24319       -0.01341
O         -1.91688        1.07281        1.41330
O         -2.53762        0.00942       -0.73408
O         -1.01940        1.98448       -0.73193
H         -0.06716        1.48905       -0.72773
C         -3.48135        2.42148       -0.25072
H         -3.19483        3.35102        0.24019
H         -3.62371        2.56783       -1.32085
H         -4.37709        2.00121        0.20714
N          3.96482        1.45229        0.40141
H          4.88904        1.83134        0.22383
C          3.74686        1.21580        1.83588
H          3.82488        2.12728        2.43940
H          2.75381        0.78104        1.96855
H          4.48130        0.49021        2.19249
H          3.27952        2.11466        0.04483
N         -1.19775       -2.16341        0.44667
C         -1.87716       -2.28147        1.75318
C         -1.03751       -3.43146       -0.29535
H         -1.70869       -1.47159       -0.13250
H         -1.28120       -2.92097        2.40610
H         -1.96545       -1.28188        2.18071
H         -2.86782       -2.71658        1.60929
H         -0.44850       -4.12147        0.31082
H         -2.02010       -3.86028       -0.49993
H         -0.50826       -3.21003       -1.22215
H         -0.24353       -1.73472        0.59162
