33
1sa1msa1ma1dma_33.log	Energy: -1001157.7796637
S         -1.34088        0.42578        0.23498
O         -1.19165        1.64965       -0.60073
O         -1.48796       -0.80288       -0.55590
O         -0.23279        0.36416        1.23546
O         -2.64341        0.60486        1.10576
H         -3.46066        0.36553        0.52370
S          2.33612       -1.54858       -0.00900
O          3.56072       -2.27660        0.23961
O          2.44177       -0.20544       -0.60801
O          1.55136       -1.44531        1.35007
H          0.78967       -0.76812        1.30393
C          1.25790       -2.50636       -1.04600
H          1.74160       -2.59383       -2.01956
H          1.14183       -3.48619       -0.58260
H          0.29808       -1.98684       -1.11712
N         -4.60167       -0.16296       -0.47045
H         -5.49841        0.30645       -0.39456
C         -4.73663       -1.61228       -0.26361
H         -5.41697       -2.08936       -0.97830
H         -3.74559       -2.06102       -0.35272
H         -5.10446       -1.79333        0.74872
H         -4.23626        0.02734       -1.39968
N          1.39884        2.31643       -0.26639
C          1.97795        3.06280       -1.39960
C          1.59653        2.94604        1.05618
H          0.36801        2.16131       -0.42485
H          3.05343        3.17197       -1.25229
H          1.78816        2.50560       -2.31678
H          1.50817        4.04559       -1.46196
H          2.66509        3.03635        1.25818
H          1.13112        3.93285        1.05398
H          1.11696        2.31044        1.79997
H          1.79753        1.35713       -0.25777
