36
1sa1msa1ma1tma_83.log	Energy: -1025808.5726256
S          1.87206       -1.46584       -0.15980
O          2.50501       -0.98549       -1.38091
O          2.68537       -1.51870        1.05294
O          0.56548       -0.74742        0.07643
O          1.41931       -2.99834       -0.46359
H          1.63021       -3.51961        0.32232
S         -2.72886       -0.21521        0.01871
O         -2.42511        0.60605       -1.15373
O         -2.62763        0.43067        1.31914
O         -1.87265       -1.54283       -0.01807
H         -0.88433       -1.32354        0.01469
C         -4.34115       -0.93343       -0.17321
H         -4.37666       -1.45405       -1.12952
H         -4.51374       -1.61731        0.65735
H         -5.05633       -0.11068       -0.15148
N          1.72785        1.32501        2.24046
H          2.11269        0.40978        2.01003
C          0.43292        1.15472        2.90638
H          0.47898        0.57032        3.83573
H          0.00777        2.13521        3.14488
H         -0.26082        0.65350        2.22853
H          2.39014        1.75579        2.87839
N          0.87250        1.80724       -0.94272
C          0.46781        1.47404       -2.33447
H          1.13028        0.68637       -2.69478
H         -0.56339        1.12155       -2.31531
H          0.55960        2.37214       -2.94942
C         -0.03227        2.80078       -0.31102
H         -1.05177        2.41709       -0.35410
H          0.28621        2.92659        0.72385
H          0.04556        3.74334       -0.85784
C          2.29507        2.23125       -0.87064
H          2.53755        2.37697        0.18223
H          2.90984        1.43507       -1.29119
H          2.41125        3.15650       -1.43984
H          0.78091        0.92032       -0.40131
