29
1sa1msa1tma_12.log	Energy: -965659.3942159
S          1.55521       -1.53113       -0.08049
O          0.75365       -0.54905       -0.89539
O          2.29589       -2.49637       -0.87319
O          2.26886       -0.82810        0.98393
O          0.37093       -2.39831        0.66304
H          0.55083       -3.32954        0.47822
S         -2.48585        0.11933       -0.05586
O         -3.78456        0.58592       -0.49062
O         -1.52681        1.08427        0.48894
O         -1.81337       -0.62468       -1.28109
H         -0.81591       -0.67379       -1.16304
C         -2.69086       -1.17651        1.14439
H         -3.13075       -0.72470        2.03414
H         -3.36223       -1.92315        0.72007
H         -1.70928       -1.60300        1.35647
N          1.32623        1.98282        0.01496
C          2.75264        1.96353       -0.40111
H          3.25945        1.17510        0.15471
H          2.80179        1.74637       -1.46847
H          3.19626        2.93951       -0.19303
C          0.54639        2.99492       -0.74139
H          0.64740        2.78665       -1.80709
H         -0.49892        2.91226       -0.44787
H          0.94297        3.98726       -0.51596
C          1.19065        2.15521        1.48557
H          0.13080        2.13293        1.73375
H          1.70246        1.32154        1.96613
H          1.64048        3.10951        1.76878
H          0.94167        1.03973       -0.22962
