32
1sa1msa1a1eda_124.log	Energy: -1011233.9461575
S          1.92414       -1.16323       -0.29400
O          1.01070       -0.27925       -1.13823
O          1.47848       -2.54831       -0.34431
O          3.32247       -0.84367       -0.51855
O          1.66099       -0.61741        1.21818
H          0.71067       -0.74989        1.41998
S         -1.99879       -1.03356        0.20684
O         -3.36687       -0.55593        0.28029
O         -1.06030       -0.53761        1.22570
O         -1.45000       -0.67136       -1.22094
H         -0.41293       -0.61752       -1.23187
C         -1.94226       -2.80719        0.23018
H         -2.30261       -3.13359        1.20635
H         -2.58780       -3.17530       -0.56702
H         -0.90170       -3.10287        0.07136
N          3.26396        2.01570        0.87810
H          3.35486        1.67512        1.83128
H          3.97020        2.73164        0.74152
H          3.50802        1.21969        0.28383
H          0.04658        4.07857       -0.12921
H          0.45189        3.15102       -1.59100
H         -2.02994        3.58258       -1.42411
H         -1.65468        1.85866       -1.38794
H         -2.63508        3.44359        0.82618
H         -2.84620        1.84306        0.50053
H          1.50255        2.26564        0.54921
H         -0.12607        1.88311        0.98342
C         -0.08004        3.11908       -0.63792
C         -1.56438        2.79184       -0.82344
N          0.52354        2.06665        0.20710
N         -2.17756        2.60655        0.48770
H          0.63343        1.17870       -0.32843
