32
1sa1msa1a1eda_246.log	Energy: -1011228.3042952
S          0.15667        0.78519        0.36222
O          0.63593        0.71293       -1.03882
O         -0.58159       -0.46602        0.73483
O          1.19872        1.12484        1.32916
O         -0.90420        1.96984        0.44325
H         -1.70342        1.72556       -0.08484
S         -3.69061       -0.30018       -0.45069
O         -4.86767       -0.75368       -1.15460
O         -3.11839        1.00664       -0.79760
O         -2.57637       -1.41189       -0.61057
H         -1.72237       -1.08356       -0.18418
C         -3.99194       -0.29387        1.30507
H         -4.72438        0.48868        1.50588
H         -4.38175       -1.27173        1.58714
H         -3.04645       -0.08350        1.80842
N          2.07273       -1.74935        1.60401
H          2.34666       -2.60614        2.07308
H          1.07872       -1.80915        1.37776
H          2.13258       -0.98147        2.26940
H          4.00021        1.36247       -1.03364
H          3.51754        1.05180        0.63958
H          6.01508        0.80785        0.34400
H          5.27219       -0.72236        0.81900
H          6.15729       -0.04085       -1.88740
H          6.52674       -1.35760       -0.99271
H          2.15100       -0.07185       -1.05086
H          3.53555       -1.02511       -1.42233
C          3.96204        0.60146       -0.24946
C          5.34138        0.00934        0.00712
N          3.05335       -0.47679       -0.70557
N          5.79351       -0.68946       -1.19691
H          2.79050       -1.09692        0.11495
