36
1sa1msa2dma_199.log	Energy: -1025799.3565195
S         -1.40681       -1.05181       -0.25093
O         -0.40444       -1.64624       -1.15144
O         -2.72348       -1.68359       -0.25302
O         -0.87777       -1.24121        1.24791
O         -1.51051        0.43450       -0.45664
H          0.07473       -0.97501        1.29252
H         -2.88655        0.89685       -0.08172
S          2.69417       -0.99533        0.18973
O          3.22957       -2.30239        0.51597
O          1.69108       -0.42521        1.10988
O          2.09787       -0.96684       -1.27579
H          1.12440       -1.23136       -1.26813
C          4.00388        0.17811        0.00076
H          4.51720        0.22156        0.96248
H          4.67574       -0.19539       -0.77246
H          3.56263        1.14829       -0.26361
N          2.27884        2.92050       -0.39605
C          1.98479        3.12873        1.01456
C          1.10178        2.52930       -1.16101
H          2.68164        3.76317       -0.79135
H          1.67584        2.17573        1.45589
H          2.88568        3.46844        1.53407
H          1.18199        3.86616        1.19169
H          0.69373        1.59899       -0.75830
H          0.29506        3.28303       -1.13011
H          1.37674        2.35382       -2.20425
N         -3.91446        1.13128        0.19567
C         -4.17848        0.51919        1.52230
C         -4.80295        0.62849       -0.88041
H         -3.98610        2.14530        0.26220
H         -4.03921       -0.55722        1.41892
H         -3.45336        0.90759        2.23755
H         -5.19580        0.75338        1.84117
H         -4.61460       -0.44061       -0.98419
H         -5.84591        0.82030       -0.62137
H         -4.54493        1.13379       -1.81129
