35
1sa1msa1ma1eda_108.log	Energy: -1035888.9327275
S         -0.16103       -1.69706        0.54354
O         -0.50031       -3.06115        0.16200
O          0.13329       -0.82105       -0.64636
O         -1.43957       -1.04240        1.23305
O          0.91994       -1.55692        1.54651
H         -2.28019       -1.38513        0.73165
H          1.94335       -0.34858        1.19949
S         -0.63686        2.52300       -0.00377
O         -0.89912        3.81123       -0.60912
O          0.70267        2.24659        0.52695
O         -1.01505        1.41137       -1.05798
H         -0.56650        0.51859       -0.85293
C         -1.80059        2.24125        1.31202
H         -1.58776        2.97110        2.09394
H         -2.80196        2.39288        0.90871
H         -1.66838        1.21834        1.66987
N         -3.38950       -2.00396       -0.22022
H         -3.12312       -2.98558       -0.23097
C         -3.22982       -1.41726       -1.56031
H         -3.88910       -1.86838       -2.30996
H         -3.42772       -0.34449       -1.50901
H         -2.19202       -1.54969       -1.87264
H         -4.35233       -1.94709        0.09530
H          4.58614        0.47585        0.07520
H          4.25260       -0.97597        1.06288
H          4.33926       -1.45741       -1.41968
H          2.79472       -1.88671       -0.68585
H          3.16514       -0.07075       -2.77601
H          1.76419       -0.37669       -1.94634
H          2.86017        0.99864        1.63974
H          2.17509        0.93214        0.14753
C          3.84990       -0.29715        0.30748
C          3.43548       -1.04237       -0.96296
N          2.65014        0.36823        0.86924
N          2.74365       -0.12632       -1.85975
