36
1sa1msa2dma_222.log	Energy: -1025797.0530264
S          1.06553       -0.06845       -0.29007
O          2.19159        0.86192       -0.34394
O         -0.01207        0.18733       -1.26281
O          1.52158       -1.49508       -0.33013
O          0.44657        0.15929        1.16984
H          3.00807       -1.56130       -0.01562
H         -0.44733       -0.26124        1.22129
S         -3.02717       -0.93701        0.09132
O         -4.04977        0.06546        0.30223
O         -1.95043       -1.05453        1.08691
O         -2.38457       -0.79805       -1.34270
H         -1.44376       -0.42392       -1.30640
C         -3.79870       -2.52920       -0.06387
H         -4.30131       -2.73104        0.88252
H         -4.52126       -2.47721       -0.87813
H         -3.02740       -3.27155       -0.26502
N         -0.30206        3.31696        0.63039
C          0.20616        3.83896       -0.62787
C         -1.64227        2.76946        0.49949
H          0.31959        2.58805        0.96325
H         -0.39129        4.70806       -0.92821
H          1.24012        4.17008       -0.49731
H          0.17919        3.10302       -1.44955
H         -2.35352        3.57691        0.29206
H         -1.73443        2.02893       -0.31346
H         -1.94526        2.29348        1.43575
N          4.06804       -1.50903        0.20507
C          4.23247       -0.76041        1.47700
C          4.74807       -0.87561       -0.95216
H          4.39864       -2.46580        0.32144
H          3.79489        0.22794        1.33300
H          3.69108       -1.28455        2.26470
H          5.29243       -0.68564        1.72576
H          4.29950        0.10798       -1.09338
H          5.81818       -0.79497       -0.75338
H          4.57060       -1.48528       -1.83821
