27
1sa1msa1a1ma_187.log	Energy: -951814.5658724
S         -1.70238       -0.82020       -0.35168
O         -0.64525       -0.79618       -1.35892
O         -2.92325       -1.53925       -0.62294
O         -1.11653       -1.41747        0.98719
O         -2.02069        0.67103       -0.00716
H         -0.17936       -1.11069        1.12399
H         -2.98502        0.74735        0.41848
S          2.44970       -0.54275        0.20799
O          3.17307       -1.78518        0.05936
O          1.36110       -0.48629        1.19841
O          1.87875       -0.03999       -1.18566
H          0.92620       -0.31829       -1.29409
C          3.57908        0.77939        0.55310
H          4.05877        0.54454        1.50371
H          4.31475        0.81156       -0.25043
H          3.01555        1.70974        0.61750
N         -4.41830        0.71052        0.94054
H         -4.99309        1.48998        0.63572
H         -4.48498        0.64261        1.95151
H         -4.79988       -0.14454        0.54114
N          0.12937        2.80924       -1.04438
H         -0.65524        2.18078       -1.18301
C          0.40007        2.94419        0.38237
H          0.60616        1.99842        0.90715
H          1.24866        3.62152        0.52949
H         -0.46258        3.40725        0.87000
H          0.92289        2.39378       -1.52019
