36
1sa1msa1ma1tma_124.log	Energy: -1025794.7031289
S          1.60677       -0.21175       -0.58459
O          0.44769       -0.20668       -1.49203
O          2.58441        0.86314       -0.84761
O          1.06540        0.14114        0.88161
O          2.26529       -1.54149       -0.48367
H          0.24291       -0.37759        1.05961
H          3.94772       -1.27585       -0.19089
S         -2.30646       -1.49707        0.21471
O         -3.42783       -0.59486        0.37199
O         -1.16517       -1.35436        1.13117
O         -1.77589       -1.48590       -1.27072
H         -0.89360       -0.99825       -1.35675
C         -2.89105       -3.17031        0.32423
H         -3.32402       -3.29256        1.31745
H         -3.65006       -3.31233       -0.44509
H         -2.04790       -3.84411        0.17691
N          4.67463       -0.53912       -0.00637
H          5.54936       -0.74916       -0.48019
C          4.83175       -0.32044        1.45144
H          5.49340        0.52754        1.62455
H          3.84406       -0.10919        1.86178
H          5.23937       -1.21953        1.91221
H          4.18511        0.27556       -0.44677
N         -1.79078        3.21336        0.12455
C         -0.49427        3.85253       -0.01481
H         -0.46544        4.43124       -0.94362
H         -0.32875        4.54138        0.82031
H          0.33850        3.12394       -0.03675
C         -1.87279        2.47458        1.37249
H         -1.73961        3.16101        2.21543
H         -2.85291        1.99877        1.46107
H         -1.10330        1.68352        1.44706
C         -2.06543        2.34949       -1.01258
H         -3.03889        1.86871       -0.88679
H         -2.08690        2.94501       -1.93127
H         -1.30142        1.56054       -1.13805
