28
1sa1msa1eda_98.log	Energy: -975730.7214508
S          0.56137       -1.10053        0.05961
O          1.83071       -1.86068       -0.04936
O         -0.60864       -1.95203        0.32650
O          0.68057        0.05297        0.97271
O          0.38467       -0.50177       -1.42248
H          3.46824        0.34632        1.36535
H         -0.49012       -0.04408       -1.45977
S         -3.05026        0.45705       -0.12349
O         -4.40703        0.87744       -0.38453
O         -2.02578        0.70627       -1.14696
O         -3.08613       -1.09019        0.20498
H         -2.15758       -1.46771        0.23809
C         -2.47320        1.18167        1.39587
H         -2.46207        2.26229        1.24727
H         -3.17310        0.90776        2.18499
H         -1.46611        0.80766        1.59510
H          2.29805        0.97317       -1.21168
H          3.54109        2.19242       -1.48576
H          4.38969       -0.25598       -1.33360
H          5.21024        0.91484       -0.26178
H          3.03979       -1.02226        0.44700
H          4.60255       -0.87467        1.12688
H          2.95365        3.09655        0.51937
H          1.81978        1.90329        0.73598
C          3.16114        1.46917       -0.75872
C          4.25955        0.42846       -0.49379
N          2.78978        2.09948        0.50635
N          3.84112       -0.35319        0.70047
