39
1sa1msa1dma1tma_69.log	Energy: -1050473.5926327
S          1.02393        0.46780       -0.43785
O         -0.01646        1.06254       -1.30608
O          1.08753        1.08661        0.89976
O          0.89583       -1.01979       -0.35447
O          2.38837        0.75800       -1.17781
H          3.14541        0.35142       -0.60013
S         -2.29623       -1.93463        0.00023
O         -3.46209       -2.74415       -0.28874
O         -2.48112       -0.49874        0.22528
O         -1.25836       -2.16804       -1.16163
H         -0.39902       -1.66481       -0.96739
C         -1.44433       -2.58348        1.42508
H         -2.08961       -2.42975        2.29062
H         -1.26848       -3.64615        1.25860
H         -0.50375       -2.03890        1.52774
N          4.14131       -0.35675        0.41980
C          5.46171        0.26294        0.50306
C          4.18271       -1.78606        0.10456
H          3.64377       -0.21983        1.29664
H          5.94755        0.19830       -0.47470
H          5.35187        1.31864        0.76099
H          6.11190       -0.22275        1.24474
H          4.63986       -1.91768       -0.88037
H          4.76444       -2.36197        0.83818
H          3.15999       -2.16605        0.05909
N         -1.76935        2.42867        0.16995
C         -0.98460        3.66709       -0.05747
H         -0.00455        3.53311        0.40139
H         -0.86064        3.81093       -1.13039
H         -1.51129        4.51452        0.38743
C         -3.09398        2.46875       -0.49438
H         -2.94265        2.65411       -1.55820
H         -3.57140        1.49890       -0.35761
H         -3.69282        3.26889       -0.05278
C         -1.87366        2.11754        1.61827
H         -2.44095        1.19556        1.72927
H         -0.86292        1.97264        2.00052
H         -2.37256        2.95076        2.11970
H         -1.20792        1.67380       -0.30495
