32
1sa1msa1a1eda_253.log	Energy: -1011227.6322890
S         -0.64196       -0.62653        0.81271
O         -0.26364        0.67127        0.15902
O          0.45487       -1.25109        1.54449
O         -1.89693       -0.41103        1.58750
O         -1.08434       -1.59385       -0.35914
H         -2.58567        0.83215        0.93397
H         -0.23843       -2.06785       -0.76644
S          3.29020        0.66746       -0.30389
O          4.45862        1.45624       -0.63475
O          2.86726       -0.38923       -1.22486
O          2.09542        1.68111       -0.08577
H          1.20288        1.21414       -0.01195
C          3.49815       -0.06178        1.30613
H          4.31003       -0.78613        1.22686
H          3.76072        0.73300        2.00423
H          2.56022       -0.54800        1.58645
N          1.07016       -2.71130       -1.25853
H          1.76303       -1.95731       -1.28094
H          1.06031       -3.16226       -2.16736
H          1.37747       -3.39077       -0.56937
H         -3.53661        1.75900       -1.74212
H         -2.29523        0.52341       -1.39034
H         -4.53428       -0.54117       -1.82866
H         -3.94040       -0.85092       -0.19517
H         -6.11534        0.96041       -0.92513
H         -6.01616       -0.09001        0.32360
H         -2.27238        2.32644        0.23528
H         -3.87007        1.93085        0.64762
C         -3.22849        0.97182       -1.04823
C         -4.32254       -0.07169       -0.86078
N         -2.97600        1.59173        0.28079
N         -5.48484        0.56566       -0.23601
