41
1sa1msa1tma1eda_109.log	Energy: -1085208.9215964
S          0.66999        0.68863        1.05209
O         -0.43452        1.18995        1.87901
O          0.88140       -0.78721        1.16544
O          0.51532        1.08120       -0.37841
O          1.98042        1.35824        1.59674
H         -1.16209        1.50050       -0.48527
H          2.83301        0.91766        1.17773
S         -1.94291       -2.10241       -0.20079
O         -2.66176       -3.22770       -0.76277
O         -2.19831       -0.76887       -0.75318
O         -0.40526       -2.43113       -0.28993
H          0.14281       -1.73529        0.21751
C         -2.23668       -2.00920        1.55516
H         -3.30182       -1.81763        1.69201
H         -1.96095       -2.96640        1.99731
H         -1.63525       -1.19569        1.96696
H          4.86666       -1.60186       -0.09307
H          3.26738       -1.63637        0.69044
H          3.03036       -1.87643       -1.74589
H          2.29053       -0.37307       -1.18683
H          4.81724       -0.59763       -2.63802
H          3.54261        0.38703       -2.92159
H          4.80394        0.21388        1.39807
H          4.55720        0.86022       -0.09534
C          3.91893       -1.05814        0.03094
C          3.24665       -0.88468       -1.32615
N          4.14425        0.27009        0.62804
N          4.08883       -0.05164       -2.19047
N         -1.93128        2.19638       -0.64440
C         -1.29770        3.51584       -0.39902
H         -0.93924        3.53127        0.63042
H         -0.45030        3.62573       -1.07473
H         -2.03494        4.30390       -0.56883
C         -2.36434        2.03432       -2.05282
H         -1.49742        2.17541       -2.69897
H         -2.75056        1.02321       -2.17667
H         -3.13036        2.77915       -2.28075
C         -3.03437        1.94290        0.31644
H         -3.44946        0.95928        0.10548
H         -2.60871        1.95456        1.31929
H         -3.78994        2.72320        0.19524
