42
1sa1msa2tma_30.log	Energy: -1075134.2205129
S         -0.78823       -0.60776       -0.35057
O         -0.52570        0.21815        0.87070
O         -1.37729        0.21312       -1.42397
O          0.42988       -1.34894       -0.75717
O         -1.82289       -1.71886        0.05566
H         -2.77864       -1.30305        0.14516
S          3.58432       -0.86803        0.27945
O          4.76214       -1.16578        1.06767
O          3.18800        0.53323        0.11346
O          2.38856       -1.69451        0.88785
H          1.54936       -1.55339        0.33902
C          3.75471       -1.56910       -1.35056
H          4.55752       -1.03197       -1.85679
H          4.00529       -2.62375       -1.23790
H          2.80383       -1.44717       -1.87242
N          0.50387        2.51232        0.04267
C         -0.76288        3.27764       -0.00310
H         -1.44139        2.75849       -0.68147
H         -1.19579        3.30464        0.99756
H         -0.56361        4.29234       -0.35600
C          1.47379        3.06501        1.01832
H          1.00022        3.09743        2.00032
H          2.34146        2.40495        1.04560
H          1.76152        4.07257        0.70786
C          1.09494        2.36635       -1.31443
H          1.99049        1.75213       -1.22754
H          0.36091        1.86899       -1.94972
H          1.33833        3.35976       -1.70011
H          0.22165        1.54417        0.38519
N         -4.18992       -0.67971        0.25653
C         -4.70389       -0.55230       -1.10824
H         -3.99057        0.02325       -1.70247
H         -4.79855       -1.54541       -1.55395
H         -5.68808       -0.05835       -1.12462
C         -5.03116       -1.55006        1.07604
H         -5.10419       -2.53387        0.60638
H         -4.57676       -1.67066        2.06261
H         -6.04494       -1.13720        1.19783
C         -4.01619        0.63254        0.88044
H         -3.53417        0.51201        1.85357
H         -3.36492        1.24021        0.24858
H         -4.98147        1.14650        1.01232
