35
1sa1msa1ma1eda_72.log	Energy: -1035893.4050753
S         -1.28515        1.31168       -0.73372
O         -0.74082        0.00091       -1.47439
O         -0.46697        2.45260       -1.16112
O         -2.70058        1.36330       -1.17187
O         -1.16721        1.03753        0.72479
H         -3.44269        0.15816       -0.45660
H          0.67280        1.52896        1.20402
S          2.64791       -1.12282       -0.10961
O          3.16708       -2.18600        0.74335
O          3.27462        0.21966        0.11308
O          1.15223       -0.99584       -0.05874
H          0.08021       -0.34419       -1.00344
C          3.03816       -1.54610       -1.80196
H          4.12273       -1.61466       -1.89012
H          2.57661       -2.50913       -2.02237
H          2.64718       -0.76898       -2.45978
N          1.48441        2.05062        0.84007
H          2.21210        1.33737        0.53972
C          2.03176        3.01561        1.81090
H          2.86550        3.54673        1.35235
H          1.25719        3.72456        2.10380
H          2.39123        2.47385        2.68550
H          1.09451        2.50160       -0.00107
H         -4.05718       -2.71171        0.14826
H         -3.02543       -2.07204       -1.16020
H         -1.86123       -3.12691        0.97647
H         -1.20836       -1.62688        0.33784
H         -2.30847       -1.98645        2.88384
H         -1.72228       -0.60110        2.19647
H         -4.91571       -0.61032       -0.13905
H         -3.78734       -0.43598        1.10438
C         -3.30507       -1.96269       -0.11183
C         -2.08008       -2.06753        0.82011
N         -3.92578       -0.62412        0.09096
N         -2.36591       -1.37759        2.07884
