26
1sa1msa1dma_71.log	Energy: -940975.2177126
S          2.23930       -0.58209        0.08607
O          3.58114       -0.95002        0.43601
O          1.29016       -0.12643        1.08733
O          2.28386        0.65032       -0.95546
O          1.62220       -1.74434       -0.75632
H          3.02931        0.53495       -1.56304
H          0.63371       -1.59673       -0.90194
S         -1.96700       -1.13854       -0.04986
O         -2.83709       -2.28383        0.05688
O         -0.87296       -1.16206       -1.04218
O         -1.31594       -0.88673        1.38153
H         -0.40145       -0.52686        1.29773
C         -2.89780        0.33814       -0.33422
H         -3.34456        0.24802       -1.32526
H         -3.66907        0.39129        0.43449
H         -2.18664        1.17441       -0.27108
N         -0.42459        2.40531       -0.05108
C         -0.23594        2.91733        1.29858
C         -0.68916        3.45521       -1.02344
H          0.39992        1.88681       -0.33420
H         -1.17857        3.33872        1.66529
H          0.05431        2.10114        1.96373
H          0.53328        3.70493        1.36175
H         -1.64396        3.93955       -0.78903
H          0.08635        4.23886       -1.04516
H         -0.77070        3.01845       -2.02279
