26
1sa1msa1dma_59.log	Energy: -940986.3271779
S         -0.99091       -1.20698       -0.00617
O         -2.40025       -1.61250        0.19131
O         -0.05844       -2.25198       -0.39473
O         -0.90259        0.02151       -0.86191
O         -0.58218       -0.69302        1.47859
H         -2.39634        0.88344       -0.60764
H          0.35054       -0.39461        1.45334
S          2.95752        0.38596        0.06331
O          2.01487        0.28820        1.16630
O          4.33457       -0.03290        0.25428
O          2.99931        1.95372       -0.37246
H          3.92243        2.24195       -0.33168
C          2.25988       -0.34663       -1.38744
H          2.08901       -1.40151       -1.16396
H          1.29579        0.12886       -1.58014
H          2.96899       -0.21209       -2.20366
N         -3.33921        0.86083       -0.14724
C         -4.41166        1.31054       -1.05163
C         -3.25872        1.56848        1.14987
H         -3.37758       -0.16993        0.03498
H         -4.27125        2.36777       -1.28190
H         -4.36587        0.72417       -1.96938
H         -5.37929        1.16468       -0.56907
H         -3.07310        2.62874        0.97203
H         -4.19808        1.43829        1.68905
H         -2.43604        1.13219        1.71858
