40
1sa1msa2eda_102.log	Energy: -1095295.2361670
S         -2.47810        1.25600       -0.31449
O         -1.50824        0.38252       -1.01186
O         -3.52945        0.55326        0.42083
O         -1.79789        2.32167        0.45238
O         -3.21025        1.99886       -1.56736
H         -3.95672        2.50377       -1.21743
S          2.31064       -1.19726       -0.64465
O          1.74131       -2.49367       -1.09142
O          1.56906       -0.68228        0.56460
O          2.40208       -0.16535       -1.69163
C          3.96855       -1.53313       -0.08522
H          3.92340       -2.29407        0.69404
H          4.54488       -1.89031       -0.93900
H          4.38234       -0.60039        0.30234
H         -0.83550       -3.70650        1.07536
H         -0.07697       -2.14623        1.48203
H         -2.36660       -2.60614        2.61948
H         -2.23339       -1.06881        1.76998
H         -4.02259       -3.15099        1.15839
H         -3.88681       -1.64998        0.48928
H         -0.00152       -2.50027       -0.84621
H         -1.71405       -2.71828       -0.87613
C         -0.94310       -2.62013        1.01776
C         -2.26473       -2.15289        1.62757
N         -0.92176       -2.25797       -0.42159
N         -3.37819       -2.49288        0.74121
H         -1.07277       -1.23632       -0.55925
H          2.82995        2.38076       -0.66436
H          1.68305        3.73542       -0.46331
H          2.98657        3.70803        1.52113
H          1.42897        3.01223        1.97273
H          3.39559        1.74415        2.77447
H          2.55591        0.79756        1.72652
H          0.72056        1.61402       -1.30668
H          1.03245        0.88598        0.10666
C          1.98241        2.75484       -0.08669
C          2.34758        2.82936        1.38980
N          0.84732        1.82434       -0.31526
N          3.10221        1.65319        1.80871
H         -0.06165        2.17147        0.05096
