38
1sa1msa1dma1eda_07.log	Energy: -1060564.9970331
S          2.84706        0.15903       -0.00481
O          3.17326       -0.97886       -0.86505
O          2.83866        1.47601       -0.63872
O          1.61937       -0.09949        0.81493
O          3.98238        0.21147        1.16754
H          4.81962        0.46227        0.75433
S         -2.68134       -0.76237        0.18425
O         -2.16263       -2.02900        0.77428
O         -2.04821       -0.44888       -1.11714
O         -2.62276        0.38451        1.13412
C         -4.41550       -1.04853       -0.11778
H         -4.50503       -1.88454       -0.81159
H         -4.89263       -1.28237        0.83389
H         -4.84025       -0.14237       -0.54996
N          0.40689       -2.41439       -0.09853
C          1.18959       -3.46705        0.58005
C          0.39727       -2.51977       -1.57575
H         -0.57822       -2.38849        0.25498
H          2.22520       -3.39973        0.24378
H          1.13971       -3.29944        1.65591
H          0.76893       -4.44397        0.33687
H          1.41374       -2.37079       -1.94102
H          0.02086       -3.50546       -1.85561
H         -0.27238       -1.74833       -1.95680
H          0.81942       -1.49931        0.17694
H          0.65595        2.47743       -0.98581
H         -0.79575        1.47631       -1.26341
H         -1.25347        3.89723       -1.78397
H         -2.25986        3.29449       -0.46135
H          0.11477        4.98600       -0.14062
H         -1.40374        5.24957        0.41314
H          0.45826        1.17017        0.88916
H         -0.21046        2.66902        1.33187
C         -0.37383        2.29000       -0.67069
C         -1.23220        3.54514       -0.74438
N         -0.32776        1.83713        0.74477
N         -0.72072        4.52964        0.21142
H         -1.21762        1.34421        0.99617
