35
1sa1msa1ma1eda_278.log	Energy: -1035872.8012600
S         -0.33434       -1.00750       -0.48451
O          0.12336        0.40459       -0.42386
O         -1.57824       -1.16817       -1.26714
O          0.75148       -1.81281       -1.31600
O         -0.43680       -1.62137        0.85961
H          1.65319       -1.59794       -0.96983
H         -2.13675       -2.15074        1.15530
S          3.56444        0.33340        0.04138
O          4.26152        1.02761       -1.02091
O          3.09221       -1.03544       -0.21456
O          2.35525        1.19247        0.58753
H          1.47587        0.88040        0.19314
C          4.58839        0.30107        1.49175
H          5.49311       -0.24805        1.22924
H          4.82816        1.33069        1.75692
H          4.04397       -0.19901        2.29176
N         -3.06641       -2.22363        0.68912
H         -2.78812       -1.92978       -0.27613
C         -4.06101       -1.28954        1.27523
H         -4.97199       -1.31990        0.67701
H         -4.27629       -1.59291        2.30010
H         -3.60906       -0.28745        1.25880
H         -3.37457       -3.19317        0.68312
H         -1.86971        2.44215       -1.25591
H         -3.34871        3.39183       -1.29696
H         -2.35565        3.56045        0.88335
H         -3.90873        2.72607        1.00846
H         -1.36599        1.26094        0.87118
H         -2.11803        1.63494        2.27084
H         -3.02798        0.48530       -1.34042
H         -4.48616        1.17391       -0.96192
C         -2.89997        2.47947       -0.88475
C         -2.87839        2.62152        0.64025
N         -3.59641        1.32211       -1.42593
N         -2.27753        1.45121        1.28536
