28
1sa1msa1eda_64.log	Energy: -975731.7522041
S          1.28137       -1.50889        0.04442
O          0.42996       -0.81926       -0.99777
O          2.69705       -1.22776       -0.19496
O          0.76993       -1.29452        1.38995
O          1.05264       -3.08876       -0.22629
H          1.56074       -3.33985       -1.00984
S         -2.66429        0.33376       -0.03584
O         -4.06918        0.55666       -0.29344
O         -1.73193        1.46089       -0.15614
O         -2.18580       -0.82522       -1.00603
H         -1.18476       -0.89685       -1.00474
C         -2.44652       -0.38023        1.57819
H         -2.75030        0.37238        2.30692
H         -3.09029       -1.25750        1.64240
H         -1.39507       -0.65289        1.70219
H          1.22412        3.54294        0.23891
H          0.30081        2.23801        1.03003
H          2.84143        2.47879        1.66769
H          2.26523        0.86308        1.28072
H          4.24773        2.28426       -0.10350
H          3.64770        0.77904       -0.41543
H         -0.01956        2.30673       -1.36247
H          1.65813        2.02669       -1.55184
C          1.13836        2.46118        0.36931
C          2.45826        1.85200        0.85699
N          0.82363        1.89083       -0.96810
N          3.40154        1.75286       -0.25803
H          0.64259        0.85743       -0.92493
