38
1sa1msa1dma1eda_23.log	Energy: -1060564.5990039
S          2.79073        0.52107       -0.33447
O          3.21837       -0.66302       -1.07492
O          2.41960        1.68211       -1.16606
O          1.77579        0.23878        0.71505
O          4.06318        1.00352        0.56372
H          4.79696        1.18564       -0.03877
S         -2.30815       -0.89183       -0.55322
O         -1.50979       -2.09248       -0.92151
O         -2.04176        0.27625       -1.43562
O         -2.17670       -0.55273        0.88569
C         -4.01043       -1.33615       -0.84245
H         -4.63499       -0.48463       -0.57116
H         -4.12405       -1.57555       -1.89967
H         -4.24727       -2.20079       -0.22221
N          0.73246       -2.29420        0.61895
C          1.73991       -3.25797        0.12758
C          0.17488       -2.60429        1.95260
H          1.15708       -1.33987        0.64906
H          1.26443       -4.22965       -0.01533
H          2.14902       -2.88034       -0.80894
H          2.54444       -3.33649        0.86039
H         -0.25985       -3.60511        1.93334
H          0.97167       -2.55442        2.69623
H         -0.60298       -1.87098        2.16850
H         -0.06781       -2.23451       -0.05462
H         -0.28552        3.97555        0.39343
H         -1.17290        3.71915       -1.13247
H         -2.68288        3.97573        0.89521
H         -2.91615        2.45662        0.02298
H         -2.32305        2.65828        2.69117
H         -2.10622        1.29547        1.77875
H          0.70036        2.11588       -0.81969
H         -0.00865        1.60439        0.56761
C         -0.94637        3.29731       -0.15070
C         -2.21544        3.01609        0.65545
N         -0.21783        2.02471       -0.34668
N         -1.87243        2.28253        1.86863
H         -0.81314        1.33723       -0.86257
