33
1sa1msa1ma1dma_164.log	Energy: -1001151.1979114
S          1.30581        0.26364        0.68268
O          1.13243       -1.09905        0.09982
O          0.35778        0.59076        1.74813
O          2.74584        0.26199        1.32120
O          1.30986        1.29915       -0.39877
H          3.36614       -0.34216        0.75219
H          0.07772        2.23138       -0.29973
S         -2.32463       -1.37590       -0.24396
O         -3.48047       -2.10747       -0.71967
O         -2.24147        0.06207       -0.51595
O         -1.04682       -2.09376       -0.83049
H         -0.19604       -1.64553       -0.51467
C         -2.14899       -1.59740        1.51411
H         -3.04217       -1.17649        1.97795
H         -2.08178       -2.66681        1.71346
H         -1.25310       -1.06399        1.84296
N          4.08092       -1.34330       -0.25406
H          4.94305       -1.78348        0.04998
C          4.23914       -0.70115       -1.56613
H          4.52595       -1.40228       -2.35794
H          3.29268       -0.22756       -1.83563
H          4.99899        0.08006       -1.49274
H          3.35935       -2.05933       -0.29880
N         -0.69703        2.97477       -0.33627
C         -1.60261        2.83265        0.83266
C         -1.37913        2.86537       -1.64966
H         -0.20801        3.86713       -0.27830
H         -2.08963        1.86179        0.75181
H         -1.00198        2.85787        1.74083
H         -2.33638        3.64118        0.81768
H         -1.83694        1.87763       -1.70555
H         -2.13861        3.64498       -1.73342
H         -0.63309        2.97512       -2.43709
