41
1sa1msa1tma1eda_169.log	Energy: -1085204.9141829
S         -0.32810        0.02503        0.95190
O         -0.74043        1.04690       -0.06139
O         -0.49105       -1.34261        0.44984
O          1.01986        0.32948        1.48085
O         -1.27793        0.21998        2.21311
H         -2.21314        0.14469        1.90263
S         -4.00361       -0.18469       -0.40375
O         -5.34347        0.06057       -0.88610
O         -3.70813        0.05788        1.01426
O         -3.01124        0.67739       -1.28702
H         -2.13211        0.82479       -0.81563
C         -3.53239       -1.85871       -0.77514
H         -4.18734       -2.50806       -0.19281
H         -3.67874       -2.01992       -1.84302
H         -2.48845       -1.99184       -0.48226
H          4.83934       -3.10371       -0.38532
H          5.21624       -2.05810        0.98979
H          2.91001       -2.88985        1.11696
H          2.93490       -1.13447        0.97900
H          2.35935       -2.96179       -1.23122
H          1.34150       -1.91012       -0.51378
H          5.95978       -1.06225       -1.07238
H          4.42886       -1.07242       -1.65166
C          4.62252       -2.12337        0.07204
C          3.14432       -2.05965        0.43421
N          4.98347       -1.00427       -0.80237
N          2.31662       -2.05432       -0.77500
N          2.31507        1.90787       -0.24853
C          1.63410        3.22118       -0.13927
H          0.56620        3.06098       -0.28925
H          1.80629        3.62449        0.85922
H          2.04001        3.89972       -0.89309
C          3.75074        1.98017        0.12059
H          3.82658        2.28680        1.16492
H          4.21013        0.99609       -0.02732
H          4.24124        2.71838       -0.51918
C          2.11637        1.28784       -1.58594
H          2.45031        0.24749       -1.53878
H          1.05062        1.31069       -1.81286
H          2.68524        1.85489       -2.32654
H          1.83976        1.27158        0.44616
