29
1sa1msa1tma_05.log	Energy: -965660.1189454
S         -1.18411       -1.77480        0.01955
O         -0.47320       -1.04087        1.12938
O         -1.95341       -2.91735        0.44451
O         -1.91549       -0.76422       -0.79611
O         -0.02291       -2.35713       -0.92257
H         -1.68246        0.70988       -0.25962
H          0.54617       -1.61883       -1.22908
S          2.25278        0.36207       -0.03030
O          1.90015        1.73977        0.30669
O          1.65426       -0.16401       -1.26562
O          1.96223       -0.60449        1.15998
H          0.93989       -0.85520        1.18909
C          4.01719        0.22003       -0.13300
H          4.34123        0.86949       -0.94657
H          4.44205        0.54617        0.81600
H          4.26427       -0.82054       -0.34048
N         -1.80233        1.74213       -0.03172
C         -3.26681        1.95997       -0.09988
H         -3.62007        1.66170       -1.08707
H         -3.74786        1.33594        0.65338
H         -3.48599        3.01441        0.08268
C         -1.26651        2.00850        1.32720
H         -1.70754        1.29421        2.02189
H         -0.18493        1.87987        1.30755
H         -1.51888        3.03384        1.60985
C         -1.07790        2.50627       -1.07746
H         -0.01283        2.29171       -0.99000
H         -1.44530        2.19018       -2.05427
H         -1.25913        3.57376       -0.93062
