35
1sa1msa1ma1eda_14.log	Energy: -1035902.4924667
S         -2.17975       -1.02469       -0.41850
O         -2.15277        0.03176       -1.45135
O         -1.64650       -2.31831       -0.89017
O         -1.61483       -0.59614        0.86899
O         -3.74798       -1.27681       -0.07628
H         -4.19160       -1.56761       -0.88487
S          2.72722        0.31261       -0.25728
O          2.36483        1.32668       -1.27841
O          2.97043       -1.04523       -0.80549
O          1.73352        0.28049        0.86163
C          4.27247        0.85330        0.44910
H          5.01035        0.89638       -0.35217
H          4.12132        1.83943        0.88821
H          4.57341        0.13357        1.21035
N          0.82861       -2.33847        0.38668
H          1.65040       -2.18544       -0.22803
H          0.72567       -1.42229        0.85198
C          1.02881       -3.42270        1.36684
H          0.15534       -3.47542        2.01614
H          1.15384       -4.36836        0.84022
H          1.91925       -3.20825        1.95745
H         -0.02960       -2.48112       -0.18251
H         -0.19944        3.78646        0.28739
H         -1.10263        3.60076       -1.24086
H         -2.61204        3.94008        0.72047
H         -2.89844        2.38716       -0.07298
H         -2.49523        2.61031        2.54429
H         -1.95015        1.29088        1.73224
H          0.66761        1.89535       -0.99485
H          0.00789        1.39587        0.40401
C         -0.89810        3.15469       -0.26469
C         -2.18000        2.95168        0.53836
N         -0.23806        1.84767       -0.48927
N         -1.87381        2.30335        1.80775
H         -0.87512        1.19638       -0.98922
