23
1sa1msa1ma_05.log	Energy: -916337.6919073
S          1.77553       -0.75045       -0.01418
O          0.78858       -1.70482       -0.57274
O          2.30902        0.17604       -1.04261
O          1.33552       -0.06929        1.20186
O          3.01642       -1.67042        0.45805
H          3.21112       -2.30462       -0.24589
S         -2.30434       -0.11252       -0.05374
O         -3.73363       -0.08954       -0.25936
O         -1.57443        1.15500       -0.22926
O         -1.70685       -1.20062       -1.02409
H         -0.71910       -1.35249       -0.88251
C         -1.91590       -0.72328        1.57065
H         -2.34435       -0.01614        2.28213
H         -2.37488       -1.70580        1.67875
H         -0.82911       -0.76559        1.67639
N          0.81864        2.38834       -0.64048
H          0.71780        3.02129       -1.43092
H         -0.09732        1.91630       -0.48308
C          1.26350        3.08676        0.59013
H          1.37628        2.32966        1.36539
H          2.22076        3.57269        0.40336
H          0.51434        3.82293        0.87997
H          1.49234        1.61937       -0.89275
