35
1sa1msa1ma1eda_08.log	Energy: -1035902.5760698
S         -2.39519       -0.98682        0.08666
O         -2.03291       -2.11101        0.95088
O         -3.00838        0.16222        0.75421
O         -1.28405       -0.60868       -0.84027
O         -3.50087       -1.54228       -0.97698
H         -4.29423       -1.78172       -0.47902
S          2.95493        0.24100       -0.00800
O          2.63864        1.46432       -0.79361
O          3.11589       -0.97580       -0.84986
O          1.97551        0.02606        1.09129
C          4.54381        0.53472        0.74424
H          5.27044        0.69707       -0.05204
H          4.46328        1.41732        1.37887
H          4.80929       -0.34274        1.33411
N          0.82761       -2.27202       -0.06013
H          0.04421       -1.75082       -0.50128
H          1.70981       -2.00799       -0.54833
C          0.56465       -3.72378       -0.00306
H          1.38873       -4.21866        0.51080
H         -0.37425       -3.88105        0.52622
H          0.48441       -4.10753       -1.01993
H          0.93068       -1.84241        0.86501
H         -0.18058        3.88702       -0.68482
H         -0.80042        2.83765       -1.98128
H         -2.62772        3.99959       -0.59430
H         -2.76511        2.23922       -0.66073
H         -2.37246        3.78328        1.66036
H         -2.55141        2.14333        1.51211
H          0.97289        1.79565       -0.54000
H         -0.12875        1.93495        0.72739
C         -0.75938        2.98545       -0.90037
C         -2.15659        3.06372       -0.27691
N         -0.04169        1.84426       -0.29221
N         -2.04786        2.95816        1.17573
H         -0.48652        0.93882       -0.54413
