36
1sa1msa1ma1tma_94.log	Energy: -1025810.0446561
S         -0.12809        0.08822        0.97306
O          0.16924       -0.96108       -0.05411
O          0.17568        1.43548        0.48195
O         -1.49922       -0.07748        1.50310
O          0.79932       -0.22315        2.22773
H          1.73699       -0.23708        1.91630
S          3.54531       -0.06435       -0.39323
O          4.85438       -0.43028       -0.88328
O          3.23582       -0.28197        1.02581
O          2.47334       -0.83161       -1.27189
H          1.58457       -0.88989       -0.79949
C          3.22326        1.64564       -0.75947
H          3.93367        2.23414       -0.17748
H          3.38031        1.79634       -1.82736
H          2.19569        1.86789       -0.46263
N         -2.91020        1.97918       -0.17416
H         -3.01505        1.85939        0.82964
C         -3.61740        3.17781       -0.62483
H         -3.30524        4.10393       -0.12268
H         -3.46171        3.30975       -1.69957
H         -4.69284        3.05265       -0.46382
H         -1.90525        2.09103       -0.29824
N         -2.98185       -1.27748       -0.39382
C         -4.41937       -1.01409       -0.15295
H         -4.64475       -1.22935        0.89230
H         -4.60128        0.04042       -0.36195
H         -5.01876       -1.65332       -0.80529
C         -2.57820       -0.90277       -1.77337
H         -2.81181        0.15384       -1.90615
H         -1.50360       -1.06000       -1.86552
H         -3.12728       -1.52623       -2.48298
C         -2.59353       -2.67170       -0.06315
H         -1.51276       -2.75576       -0.17998
H         -2.85972       -2.87108        0.97507
H         -3.11811       -3.35904       -0.73037
H         -2.44138       -0.67020        0.27697
