30
1sa1msa2ma_144.log	Energy: -976475.7851865
S         -1.43358        0.23181       -0.10023
O         -2.54191        1.20312        0.00440
O         -0.49613        0.28298        1.04234
O         -1.92959       -1.14436       -0.36514
O         -0.62784        0.70951       -1.38610
H         -3.65816       -1.10370       -0.59676
H          0.26562        0.28677       -1.38888
S          2.58067       -0.86797       -0.01854
O          3.63550        0.06560        0.32274
O          1.74891       -0.57351       -1.19382
O          1.64142       -1.14115        1.22046
H          0.78406       -0.60436        1.16327
C          3.28577       -2.48343       -0.22775
H          3.99943       -2.41406       -1.04915
H          3.79280       -2.75169        0.69900
H          2.48588       -3.18535       -0.45993
N         -4.50670       -0.50745       -0.44170
H         -4.02495        0.42226       -0.35054
C         -5.19307       -0.87195        0.81899
H         -5.98087       -0.14892        1.02729
H         -5.61202       -1.87388        0.73220
H         -4.45158       -0.84799        1.61678
H         -5.11998       -0.52397       -1.25277
N          1.70032        2.67654        0.96688
H          2.53155        2.13011        1.16704
C          1.70958        3.11319       -0.42519
H          1.85741        2.30871       -1.16219
H          0.76052        3.60635       -0.65370
H          2.50667        3.84938       -0.57070
H          0.89842        2.08093        1.14789
