28
1sa1msa1eda_28.log	Energy: -975732.7612205
S          1.21135        1.62879       -0.01181
O          1.92294        0.94554       -1.10766
O          0.14650        2.54923       -0.39479
O          0.79102        0.66438        1.04677
O          2.39128        2.51867        0.65580
H          1.97680        3.20313        1.19848
S         -2.41380       -0.30814       -0.03187
O         -3.57595       -1.11694        0.26573
O         -1.41905       -0.81526       -0.98449
O         -1.69501        0.00583        1.34340
H         -0.74791        0.32247        1.20390
C         -2.92048        1.29813       -0.59905
H         -3.41561        1.15726       -1.56052
H         -3.61314        1.70789        0.13605
H         -2.02755        1.91948       -0.70030
H          1.97583       -3.52216       -1.00330
H          3.17155       -2.22661       -1.27523
H          3.00196       -2.87284        1.16273
H          2.56921       -1.18209        0.88202
H          0.79592       -3.26370        1.76088
H          0.62367       -1.62148        1.82825
H          0.91977       -1.87314       -2.33992
H          0.29031       -1.70957       -0.81366
C          2.22247       -2.47765       -0.79685
C          2.25170       -2.21413        0.71050
N          1.15525       -1.62990       -1.38064
N          0.91262       -2.39950        1.24958
H          1.42749       -0.61306       -1.34879
