41
1sa1msa1tma1eda_144.log	Energy: -1085206.3222200
S         -0.46908       -1.75139        1.12235
O         -0.53149       -2.60159        2.28891
O         -0.78966       -2.35074       -0.18850
O         -1.34185       -0.50102        1.28216
O          1.01076       -1.17688        1.01121
H          1.29330       -1.13124        0.00060
S          0.25804        2.37217        0.34320
O          0.06851        3.79850        0.17515
O          0.04321        1.50392       -0.82503
O         -0.67463        1.89293        1.51184
H         -0.85561        0.87658        1.47971
C          1.88772        2.06208        0.98177
H          1.99286        2.62905        1.90673
H          1.97999        0.99027        1.16601
H          2.60654        2.40645        0.23745
H          3.62982        0.69766       -1.00017
H          4.97588       -0.30196       -1.55013
H          3.16059       -0.81718       -2.97996
H          3.31299       -2.19676       -1.87169
H          1.29127       -0.05563       -1.68488
H          1.04046       -1.66749       -1.90579
H          4.82322       -0.46661        0.82953
H          3.31155       -1.10374        0.75044
C          4.00082       -0.34209       -1.05361
C          3.04805       -1.13797       -1.93632
N          4.18080       -0.98222        0.24053
N          1.65869       -0.98399       -1.47768
N         -2.79764       -0.14426       -0.91931
C         -2.13036       -0.34410       -2.22812
H         -1.36128        0.42002       -2.33649
H         -1.67692       -1.33477       -2.22128
H         -2.87594       -0.25927       -3.02261
C         -3.81116       -1.19596       -0.65554
H         -3.30597       -2.16184       -0.67546
H         -4.23492       -1.03102        0.33520
H         -4.59188       -1.14349       -1.41773
C         -3.35654        1.22226       -0.78312
H         -3.73771        1.34612        0.23089
H         -2.56034        1.94424       -0.96325
H         -4.16208        1.35551       -1.50890
H         -2.08201       -0.26046       -0.14802
