35
1sa1msa1ma1eda_40.log	Energy: -1035900.0210771
S         -2.36071       -0.86779       -0.21023
O         -2.94811        0.33759       -0.80229
O         -1.90806       -1.87998       -1.17265
O         -1.34399       -0.58793        0.83777
O         -3.54888       -1.56610        0.67038
H         -4.29560       -1.72798        0.07826
S          2.88273        0.10588        0.02436
O          3.09477       -1.25018        0.59582
O          2.73140        1.17026        1.04824
O          1.75430        0.11198       -0.95385
C          4.36326        0.49498       -0.88875
H          5.19857        0.49471       -0.18828
H          4.50214       -0.26695       -1.65577
H          4.23853        1.47947       -1.33978
N          0.63273       -2.37530        0.07199
H          1.60885       -2.11503        0.33359
H         -0.02142       -1.71920        0.54847
C          0.27942       -3.77974        0.36001
H         -0.75708       -3.94054        0.06509
H          0.93924       -4.44198       -0.20032
H          0.39953       -3.95993        1.42778
H          0.51011       -2.14917       -0.91683
H          0.02398        3.91906        0.78038
H          0.56292        3.39002       -0.83168
H         -1.80920        4.27003       -0.86994
H         -1.74176        2.56444       -1.32679
H         -3.02269        3.63755        0.97521
H         -3.07863        2.10193        0.34007
H          1.00031        1.77653        1.03692
H         -0.69473        1.54479        1.08477
C         -0.14983        3.20264       -0.02573
C         -1.60424        3.26161       -0.49356
N          0.10728        1.84854        0.51475
N         -2.47400        2.87223        0.60871
H          0.23945        1.15271       -0.23468
