30
1sa1msa2ma_122.log	Energy: -976481.3792954
S         -0.78237       -0.79656        0.90665
O          0.16487       -1.49944        1.75967
O         -2.21002       -0.91732        1.23174
O         -0.52781        0.79970        1.09633
O         -0.53019       -1.03812       -0.55575
H          0.40927        0.98953        0.88648
H         -1.85985       -0.57809       -1.36713
S          3.18053        0.33299       -0.21014
O          2.11062        1.19911        0.25868
O          4.51851        0.48594        0.33375
O          3.29860        0.56715       -1.81715
H          4.21170        0.82751       -2.00503
C          2.65290       -1.35387       -0.15536
H          2.44386       -1.58895        0.89002
H          1.72280       -1.43894       -0.72184
H          3.45487       -1.96988       -0.56084
N         -3.62894        1.48437        0.19252
H         -4.61297        1.57740        0.42432
C         -2.98246        2.80237        0.14412
H         -3.08683        3.36604        1.07798
H         -1.91698        2.65843       -0.04314
H         -3.40987        3.39271       -0.67124
H         -3.20252        0.90641        0.92096
N         -2.83523       -0.33952       -1.71328
H         -3.19734        0.44808       -1.07186
C         -3.70049       -1.53129       -1.56799
H         -4.72595       -1.28270       -1.84520
H         -3.32748       -2.33822       -2.19898
H         -3.65266       -1.83354       -0.52136
H         -2.78772       -0.01219       -2.67478
