42
1sa1msa2tma_23.log	Energy: -1075135.4784372
S          0.77271        0.39628        0.82837
O          0.60368       -0.39225       -0.43534
O          0.93119        1.84600        0.47933
O         -0.29671        0.17275        1.80124
O          2.11774       -0.07045        1.47080
H          2.84746       -0.30036        0.70988
S         -2.57821       -1.92589       -0.26260
O         -3.45996       -2.91884       -0.84266
O         -2.84846       -0.50767       -0.51360
O         -1.11114       -2.26942       -0.73799
H         -0.46280       -1.50384       -0.57917
C         -2.49560       -2.16351        1.49843
H         -3.48679       -1.94767        1.89973
H         -2.22724       -3.20376        1.68273
H         -1.74642       -1.47434        1.89562
N         -1.37939        2.81606       -0.29051
C         -2.43130        2.44948        0.69218
H         -2.54358        1.36535        0.68934
H         -2.11545        2.78750        1.67941
H         -3.36995        2.92866        0.40230
C         -1.16938        4.27748       -0.36233
H         -0.92484        4.64945        0.63318
H         -0.33911        4.48257       -1.03909
H         -2.07870        4.75950       -0.72940
C         -1.63927        2.22081       -1.62611
H         -0.78439        2.43030       -2.26999
H         -1.76916        1.14477       -1.50613
H         -2.54823        2.66047       -2.04414
H         -0.45389        2.39816        0.05373
N          3.84958       -0.62619       -0.30685
C          3.76056        0.41765       -1.33298
H          2.75648        0.40637       -1.76097
H          3.92742        1.39306       -0.86975
H          4.50476        0.25959       -2.12772
C          5.16465       -0.63431        0.33531
H          5.35452        0.34348        0.78447
H          5.17789       -1.38819        1.12585
H          5.96327       -0.85925       -0.38711
C          3.50770       -1.94139       -0.85779
H          3.52830       -2.68497       -0.05765
H          2.49648       -1.89944       -1.26604
H          4.21582       -2.24093       -1.64447
