38
1sa1msa1dma1eda_143.log	Energy: -1060548.1009955
S          0.92699       -0.46719        0.43415
O         -0.40892       -0.56495        1.11293
O          1.38466       -1.69852       -0.19521
O          0.91812        0.71305       -0.48229
O          1.89465       -0.10659        1.62899
H         -0.45427        1.53686       -0.18222
H          2.88494       -0.29241        1.36886
S         -3.36396       -0.70827       -0.31035
O         -3.01706       -0.31762       -1.67054
O         -3.48926        0.40213        0.65151
O         -2.39259       -1.79085        0.25293
H         -1.50383       -1.35405        0.59461
C         -4.87841       -1.63170       -0.31916
H         -4.74326       -2.49489       -0.97047
H         -5.10191       -1.93780        0.70207
H         -5.65266       -0.97039       -0.70883
N         -1.27939        2.10948        0.15098
C         -1.82179        2.90153       -0.97045
C         -0.82895        2.89239        1.31951
H         -2.00445        1.43670        0.45620
H         -1.03998        3.55673       -1.35752
H         -2.15116        2.20710       -1.74408
H         -2.66895        3.49424       -0.62090
H         -0.04532        3.58300        1.00520
H         -1.67295        3.44378        1.73726
H         -0.43016        2.19555        2.05723
H          5.55674       -1.65075       -0.42471
H          3.81101       -2.01574       -0.39961
H          4.35972       -0.63752       -2.35275
H          3.29495        0.23430       -1.24823
H          6.15797        0.72499       -1.60638
H          4.91825        1.79070       -1.63162
H          4.76027       -1.21547        1.75966
H          4.95460        0.25339        1.03933
C          4.55248       -1.22040       -0.29587
C          4.30813       -0.16159       -1.36389
N          4.40131       -0.60362        1.03323
N          5.25758        0.94333       -1.19296
