40
1sa1msa2eda_267.log	Energy: -1095272.8389422
S          0.30972       -1.37885       -0.37468
O          1.55208       -1.78692       -1.06301
O         -0.75383       -2.37097       -0.36316
O          0.69024       -1.20011        1.19532
O         -0.13229       -0.01577       -0.79335
H          1.52830       -0.68164        1.24723
H         -0.87309        0.64550        0.57035
S          4.00920        0.32652        0.13641
O          5.16060       -0.40195        0.62688
O          2.83832        0.43830        1.02464
O          3.54172       -0.20544       -1.26679
H          2.74088       -0.83808       -1.20146
C          4.50673        1.97104       -0.31540
H          4.88710        2.44927        0.58756
H          5.29233        1.89102       -1.06660
H          3.63956        2.49999       -0.70856
H         -4.65545        0.56617        0.93943
H         -5.83850       -0.72603        0.74546
H         -4.25400       -2.14989       -0.36740
H         -3.20038       -0.80197       -0.76626
H         -3.59382       -1.75911        1.98084
H         -2.28930       -2.02162        1.01072
H         -6.34064        0.81422       -0.93029
H         -4.76540        0.93183       -1.40389
C         -5.00646       -0.21710        0.24389
C         -3.86134       -1.19857        0.00855
N         -5.47269        0.30143       -1.03137
N         -3.04417       -1.36543        1.22199
H         -0.85722        2.88385       -0.45746
H         -2.43092        3.68619       -0.40102
H         -1.77525        2.94942        1.82123
H         -3.24459        2.10662        1.29109
H         -0.96357        0.89269        2.20751
H         -2.20731        0.06414        1.41072
H         -2.59863        2.27984       -2.19500
H         -1.86423        1.02670       -1.46643
C         -1.93558        2.71421       -0.31478
C         -2.17415        2.22318        1.10925
N         -2.50559        1.80335       -1.30427
N         -1.51876        0.90555        1.35526
