41
1sa1msa1tma1eda_170.log	Energy: -1085204.7902999
S          0.08442       -1.72380        0.50089
O         -0.35272       -0.62655       -0.40396
O          0.98371       -1.15321        1.56073
O         -0.98025       -2.55265        1.03189
O          0.98917       -2.68782       -0.39503
H          1.64108       -2.13179       -0.87748
S          3.08680        0.41249       -0.65550
O          2.31662        1.59600       -1.01885
O          2.80999       -0.83198       -1.37817
O          3.00462        0.15715        0.89171
H          2.17159       -0.41809        1.15728
C          4.81610        0.77858       -0.81845
H          4.99504        0.98711       -1.87366
H          5.04312        1.65240       -0.20826
H          5.38416       -0.09166       -0.49186
H         -5.56387       -0.22225       -1.57525
H         -4.36466        0.46104       -2.68131
H         -3.61408       -1.70364       -1.80803
H         -2.52236       -0.41403       -1.30348
H         -4.53843       -1.65875        0.40792
H         -2.91666       -1.66667        0.58697
H         -5.13508        2.12189       -1.11288
H         -4.60549        1.20709        0.13781
C         -4.55399        0.21948       -1.63013
C         -3.53180       -0.81155       -1.16893
N         -4.43247        1.44452       -0.83550
N         -3.70035       -1.10440        0.25667
N         -0.76765        1.68262        0.85568
C         -1.30339        2.61578       -0.16773
H         -0.53760        2.75536       -0.93198
H         -2.21660        2.19033       -0.59668
H         -1.53348        3.56976        0.31391
C         -1.81018        1.24412        1.81875
H         -2.59300        0.70329        1.27934
H         -1.34689        0.57107        2.54196
H         -2.21751        2.12281        2.32473
C          0.42217        2.23521        1.54585
H          0.82392        1.46928        2.20937
H          1.16994        2.49593        0.79731
H          0.11905        3.11508        2.11877
H         -0.48114        0.80901        0.33862
