40
1sa1msa2eda_04.log	Energy: -1095298.3438638
S          2.33015        1.48615        0.18095
O          3.41630        0.69590        0.76366
O          1.46650        0.75656       -0.77116
O          1.54975        2.26311        1.16708
O          3.03980        2.58536       -0.79328
H          3.71916        3.03993       -0.27718
S         -2.45363       -1.61788        0.05703
O         -1.67132       -2.57074       -0.78021
O         -3.33914       -0.72167       -0.69850
O         -1.54044       -0.88101        0.99284
C         -3.49401       -2.63119        1.09535
H         -4.13995       -3.22288        0.44620
H         -2.85738       -3.27845        1.69858
H         -4.08778       -1.97342        1.73047
H         -0.80201        3.14330       -0.85262
H         -1.00450        1.45907       -1.35551
H         -3.04405        2.85473       -1.89409
H         -3.39491        1.51543       -0.79143
H         -3.18481        4.34596       -0.04789
H         -4.34759        3.26096        0.33720
H         -0.15654        1.97077        0.98825
H         -1.77975        2.35479        1.30184
C         -1.38366        2.23204       -0.68760
C         -2.87669        2.47405       -0.87863
N         -1.14586        1.80165        0.71335
N         -3.35386        3.37150        0.17770
H         -1.35678        0.78117        0.83767
H          1.79415       -3.76982       -0.89455
H          1.88631       -2.50855       -2.14463
H          4.11675       -2.96269       -0.94983
H          3.58269       -1.27960       -0.88825
H          3.93150       -3.00618        1.32657
H          3.58317       -1.38759        1.28958
H         -0.03157       -2.24026       -0.55919
H          1.13802       -2.05502        0.65138
C          1.98575       -2.70918       -1.07615
C          3.35698       -2.29065       -0.53678
N          0.95068       -1.94096       -0.35170
N          3.32980       -2.30086        0.92403
H          1.04433       -0.92390       -0.54459
