32
1sa1msa1a1eda_242.log	Energy: -1011228.3620386
S          0.80783       -2.22233       -0.05397
O          0.77611       -3.61961        0.33835
O         -0.16364       -1.78662       -1.06876
O          0.85263       -1.27651        1.10196
O          2.24473       -1.98649       -0.81608
H          2.87908       -2.60911       -0.43663
S          1.60089        1.96931       -0.12248
O          1.97011        3.32667        0.22040
O          0.24059        1.69404       -0.58053
O          1.90244        1.07686        1.15484
H          1.51719        0.14572        1.06657
C          2.73346        1.32894       -1.33553
H          2.56564        1.88573       -2.25812
H          3.74551        1.49137       -0.96480
H          2.53183        0.26548       -1.47683
N         -1.11016        0.51927        2.41194
H         -1.67352        0.53717        3.25525
H         -0.46802        1.30671        2.45285
H         -0.53312       -0.32160        2.42490
H         -3.30273       -1.14175       -1.21418
H         -3.10645       -1.41596        0.52150
H         -5.29743       -0.30972        0.06419
H         -4.24269        0.74732        1.00917
H         -4.79422        1.03340       -1.85195
H         -4.89999        2.16045       -0.66874
H         -1.16232       -0.41784       -0.65251
H         -2.07461        0.99148       -0.81728
C         -3.19749       -0.64475       -0.24621
C         -4.37477        0.28506        0.02531
N         -1.94850        0.14062       -0.26357
N         -4.38461        1.34603       -0.97837
H         -1.67197        0.41572        0.71690
