36
1sa1msa1ma1tma_109.log	Energy: -1025805.3669119
S         -0.38404       -1.42467        0.23834
O         -1.47649       -2.27107        0.70417
O          0.83342       -2.13754       -0.20481
O         -0.82842       -0.42435       -0.78168
O          0.03134       -0.57324        1.53688
H         -2.37996       -0.15006       -0.59940
H          0.84847       -0.06297        1.32653
S          3.37942        0.19148       -0.07126
O          4.47997       -0.28437        0.74161
O          2.21417        0.76842        0.61939
O          2.88796       -0.90931       -1.08176
H          2.06087       -1.40707       -0.74419
C          3.98670        1.40157       -1.22147
H          4.38174        2.23041       -0.63340
H          4.77779        0.93905       -1.81150
H          3.16093        1.72560       -1.85371
N         -1.84928        3.33948        0.30794
H         -1.70016        3.92017       -0.51195
C         -0.60234        2.64109        0.65556
H          0.25630        3.30573        0.81437
H         -0.75492        2.06107        1.56917
H         -0.35089        1.92508       -0.12955
H         -2.11478        3.97529        1.05390
N         -3.42520       -0.03110       -0.42689
C         -3.57638        0.22920        1.02802
H         -3.12239       -0.60074        1.57035
H         -3.06066        1.16230        1.25701
H         -4.63955        0.31691        1.26494
C         -3.88556        1.12071       -1.23712
H         -3.35433        2.01044       -0.88704
H         -3.66106        0.92385       -2.28639
H         -4.96361        1.24336       -1.10441
C         -4.06933       -1.30518       -0.82861
H         -3.88754       -1.46774       -1.89158
H         -3.61213       -2.11194       -0.25525
H         -5.14310       -1.23916       -0.63726
