30
1sa1msa2ma_88.log	Energy: -976492.1001880
S         -1.67572       -1.39868        0.08933
O         -2.23062       -2.70859        0.37204
O         -2.61367       -0.31182       -0.20078
O         -0.62993       -0.92880        1.05622
O         -0.78059       -1.59799       -1.28811
H         -1.07103       -2.42873       -1.68753
S          2.55373        0.02444        0.17750
O          3.93824        0.20093        0.55427
O          1.64741        1.17498        0.22213
O          1.96444       -1.13644        1.07979
H          0.96116       -1.14678        1.05524
C          2.46357       -0.66718       -1.45953
H          2.82400        0.09190       -2.15488
H          3.10382       -1.54900       -1.48559
H          1.42363       -0.93007       -1.66192
N         -1.70146        2.22554       -1.43070
H         -2.38723        1.47321       -1.37223
C         -0.60935        1.82550       -2.32821
H         -0.93616        1.65810       -3.36124
H          0.17026        2.59070       -2.32023
H         -0.17481        0.89908       -1.94924
H         -2.17008        3.05539       -1.77879
N         -0.83590        1.83811        1.17279
H         -1.12001        2.10864        0.17777
H         -0.70386        0.80597        1.15802
C         -1.88783        2.21477        2.13529
H         -1.59971        1.90764        3.14073
H         -2.04405        3.29369        2.10751
H         -2.80411        1.69903        1.84696
H          0.08096        2.23672        1.37168
