39
1sa1msa1dma1tma_41.log	Energy: -1050476.2093723
S         -1.03041       -0.57035        0.27313
O         -1.13512        0.81575       -0.28140
O         -1.02737       -1.59830       -0.77981
O          0.13023       -0.70680        1.19347
O         -2.30602       -0.75526        1.17349
H         -3.11340       -0.26416        0.70456
S          2.14801        2.06227       -0.14567
O          3.05785        3.13968       -0.47647
O          2.61922        0.68262       -0.29253
O          0.84643        2.27471       -1.01244
H          0.10252        1.63176       -0.76276
C          1.56352        2.25082        1.52538
H          2.43596        2.17981        2.17639
H          1.09796        3.23222        1.61390
H          0.85872        1.44221        1.73130
N         -4.12572        0.54011       -0.11682
C         -5.30689        1.00461        0.60658
C         -4.44143       -0.21412       -1.33225
H         -3.52805        1.32691       -0.36262
H         -5.87683        0.13868        0.95521
H         -4.99529        1.58329        1.47897
H         -5.96437        1.62487       -0.01833
H         -4.98049       -1.12496       -1.05663
H         -5.06108        0.36428       -2.03081
H         -3.50997       -0.50299       -1.82379
N          1.96633       -2.27704       -0.01888
C          3.28815       -2.17823        0.64449
H          3.71394       -1.20180        0.41763
H          3.14491       -2.27813        1.72108
H          3.93299       -2.98033        0.27775
C          1.26664       -3.54322        0.31456
H          1.15777       -3.60846        1.39736
H          0.27962       -3.51134       -0.14715
H          1.85277       -4.38513       -0.06091
C          2.06410       -2.08353       -1.49019
H          1.05166       -2.08451       -1.89414
H          2.53515       -1.11949       -1.67561
H          2.65645       -2.89982       -1.91095
H          1.35674       -1.51243        0.37408
