40
1sa1msa2eda_279.log	Energy: -1095271.6016567
S         -0.17412        0.54138        0.86825
O          1.11174        0.37154        1.53999
O         -1.36162        0.42368        1.73754
O         -0.22863        1.77160        0.02761
O         -0.23574       -0.69882       -0.15693
H          1.14901        2.33901       -0.45271
H         -1.15173       -0.77135       -0.52144
S         -4.03550       -0.40379       -0.30343
O         -4.77983       -1.55591        0.16067
O         -2.78213       -0.64007       -1.03719
O         -3.76333        0.61316        0.86840
H         -2.81023        0.55176        1.22029
C         -5.08585        0.59360       -1.33187
H         -5.36668       -0.01896       -2.18920
H         -5.96683        0.86747       -0.75138
H         -4.52846        1.47564       -1.64469
H          3.87703        3.45979        0.03736
H          2.72759        2.77745        1.22650
H          4.72584        1.23283        0.55391
H          3.10037        0.54197        0.47958
H          4.81978        1.08088       -1.75974
H          3.51010        0.04688       -1.59541
H          1.85878        3.75905       -1.03125
H          2.43491        2.26939       -1.60025
C          3.14858        2.66680        0.22655
C          3.76958        1.27400        0.02226
N          2.06064        2.79526       -0.77995
N          3.87589        0.99139       -1.40584
H          2.67030       -3.68301       -0.89608
H          4.09031       -2.90178       -1.62637
H          4.45092       -3.25672        0.73235
H          4.39375       -1.52302        0.39011
H          3.06021       -2.43006        2.36961
H          2.15688       -1.52003        1.36366
H          2.11809       -1.84881       -2.40544
H          1.60400       -1.49755       -0.91321
C          3.24317       -2.74653       -0.94763
C          3.77966       -2.44001        0.44515
N          2.44810       -1.62787       -1.47066
N          2.70329       -2.37606        1.42349
