40
1sa1msa2eda_71.log	Energy: -1095294.7264537
S         -2.38880       -1.71798       -0.11355
O         -3.31316       -0.80650       -0.78394
O         -1.52108       -2.50635       -1.00278
O         -1.61705       -1.07632        0.99058
O         -3.29645       -2.78759        0.71492
H         -3.91101       -3.19820        0.09172
S          2.13409        1.60255       -0.05337
O          1.40445        1.08817        1.15307
O          1.64970        2.91246       -0.49945
O          2.13025        0.55460       -1.12566
C          3.83631        1.77743        0.44488
H          3.87586        2.48410        1.27399
H          4.20859        0.79453        0.74007
H          4.39469        2.16014       -0.41013
H          2.36547       -1.72580        1.55958
H          1.51695       -3.25753        1.22331
H          3.73910       -3.56177        0.43741
H          2.75235       -3.33492       -1.00692
H          4.85302       -2.01471       -0.94495
H          3.57043       -0.98831       -0.99118
H          0.22593       -1.28681        0.64621
H          1.36749       -0.81432       -0.48040
C          2.00398       -2.39028        0.77217
C          3.16030       -2.81912       -0.12041
N          0.96458       -1.64407        0.01877
N          4.03905       -1.69846       -0.43084
H          0.44216       -2.22939       -0.64582
H         -0.79099        2.83883       -0.74208
H         -1.26149        1.18062       -1.14857
H         -3.10721        2.79942       -1.69716
H         -3.58876        1.59130       -0.50230
H         -2.92598        4.39517        0.06565
H         -4.24611        3.54356        0.52332
H         -0.24645        1.59265        1.12360
H         -1.75631        2.33061        1.48954
C         -1.49441        2.03531       -0.51151
C         -2.94809        2.46245       -0.66541
N         -1.26785        1.64288        0.90570
N         -3.25088        3.47643        0.34870
H         -1.63861        0.68778        1.07736
