35
1sa1msa1ma1eda_143.log	Energy: -1035887.4288195
S         -0.74135       -1.93603       -0.24957
O         -1.94647       -2.32186       -0.97047
O          0.25505       -1.18025       -1.09070
O         -1.16521       -0.91472        0.89522
O         -0.02395       -3.02741        0.44960
H         -2.14301       -0.60367        0.74447
H          1.42567       -2.43253        0.91250
S          1.90306        1.58685       -0.12355
O          3.19279        1.47304       -0.78727
O          1.75296        0.82500        1.13156
O          0.73024        1.22926       -1.09573
H          0.48256        0.19917       -1.08352
C          1.53298        3.28695        0.21585
H          1.59617        3.83521       -0.72429
H          0.52757        3.34194        0.64067
H          2.28782        3.64031        0.91892
N          2.32305       -1.88918        1.06514
H          2.05582       -0.88784        1.17561
C          3.21712       -2.03279       -0.11142
H          4.05304       -1.33976       -0.02062
H          3.56851       -3.06236       -0.17349
H          2.62902       -1.78913       -0.99550
H          2.76833       -2.19896        1.92566
H         -3.60805        2.37866        1.28757
H         -3.44018        3.13389       -0.28610
H         -4.83771        1.22813       -0.61132
H         -3.27176        0.84081       -1.33909
H         -4.22138       -0.15088        1.25377
H         -3.89310       -1.01798       -0.10273
H         -1.40192        1.47219        1.03343
H         -1.26425        2.08083       -0.45843
C         -3.15940        2.24776        0.29446
C         -3.78129        1.02425       -0.38711
N         -1.71135        2.23673        0.44063
N         -3.62887       -0.19078        0.42910
