23
1sa1msa1ma_72.log	Energy: -916310.2697749
S         -1.85029       -0.85480        0.01807
O         -3.23784       -0.56279       -0.20178
O         -1.06901       -0.08621        0.97376
O         -1.69093       -2.36868        0.52999
O         -1.13688       -0.86510       -1.37568
H         -2.32731       -2.93270        0.06558
H         -0.13917       -0.88738       -1.26629
S          2.20594       -0.01393       -0.08966
O          2.36373        1.32634       -0.60651
O          1.42848       -0.97438       -0.89508
O          1.60328       -0.00232        1.38110
H          0.61429       -0.00018        1.33830
C          3.78607       -0.73649        0.25267
H          4.30872       -0.80584       -0.70174
H          4.31776       -0.07413        0.93568
H          3.63219       -1.72181        0.69033
N         -1.64833        3.07690        0.70472
H         -1.74907        2.18734        1.18119
C         -1.06394        2.87843       -0.61845
H         -1.64806        2.22893       -1.28980
H         -0.94312        3.84781       -1.11071
H         -0.06368        2.44944       -0.51305
H         -2.57412        3.48347        0.63108
