35
1sa1msa1ma1eda_233.log	Energy: -1035883.6604996
S          0.22890       -0.09432       -0.79918
O         -0.93241       -0.28350       -1.69132
O          1.44599        0.37452       -1.45616
O         -0.15074        1.13583        0.18765
O          0.45184       -1.26296        0.09218
H         -1.06366        0.99685        0.54011
H          1.79756       -0.99646        1.01652
S         -3.77222        0.08667        0.20426
O         -4.59319        1.11019       -0.40968
O         -2.63894        0.52370        1.03659
O         -3.25770       -0.95869       -0.85554
H         -2.33078       -0.71847       -1.20283
C         -4.79703       -0.97415        1.19307
H         -5.23699       -0.35177        1.97271
H         -5.57257       -1.38940        0.54966
H         -4.17445       -1.75921        1.62020
N          2.64757        2.03909        1.06922
H          1.65159        2.08649        0.85170
C          3.41533        2.65995       -0.02169
H          3.26773        3.74474       -0.08110
H          4.47797        2.44554        0.10967
H          3.09043        2.21544       -0.96247
H          2.78585        2.56029        1.93047
H          4.70892       -1.17544        1.67333
H          3.60237       -2.57629        1.70526
H          4.82280       -2.46267       -0.41731
H          3.08798       -2.26062       -0.68355
H          4.87943       -0.60665       -1.69723
H          3.40821       -0.06993       -1.22550
H          2.45034       -0.70885        2.52917
H          2.83905        0.32818        1.27239
C          3.80805       -1.61080        1.23446
C          3.98393       -1.77539       -0.27019
N          2.66968       -0.70304        1.53510
N          4.27430       -0.49174       -0.89378
