41
1sa1msa1tma1eda_52.log	Energy: -1085219.7818839
S          1.08650       -1.70469       -0.48953
O          1.11520       -0.49938       -1.55521
O          0.27390       -2.78744       -1.06752
O          2.52953       -1.99550       -0.33184
O          0.48991       -1.15008        0.74913
H          3.03905       -0.49370        0.21742
H         -1.43971       -1.28179        0.64668
S         -1.10707        1.86749       -0.23340
O          0.27675        2.28382        0.05165
O         -1.90774        1.48977        0.95046
O         -1.17429        0.79348       -1.29334
H          0.25560        0.00811       -1.51815
C         -1.92364        3.27231       -0.97620
H         -1.37244        3.55524       -1.87313
H         -2.94448        2.98293       -1.22822
H         -1.92116        4.08454       -0.24863
H         -3.95646       -2.42432       -0.48405
H         -3.10162       -3.06044        0.94518
H         -5.04372       -1.66921        1.58306
H         -3.53948       -0.95520        2.16861
H         -5.34226        0.41991        0.79090
H         -3.73503        0.74400        0.64817
H         -1.52816       -2.20894       -0.66977
H         -2.22677       -0.69384       -0.65639
C         -3.36027       -2.15496        0.39032
C         -4.12596       -1.16707        1.26185
N         -2.09831       -1.55826       -0.10156
N         -4.45233        0.03321        0.50445
N          3.45504        0.40273        0.58578
C          2.66488        0.82422        1.77484
H          1.65362        1.07132        1.44967
H          2.63504       -0.00366        2.48288
H          3.14921        1.69713        2.21976
C          4.85219        0.05947        0.93594
H          4.84162       -0.72938        1.68838
H          5.36091       -0.30029        0.04115
H          5.35550        0.94641        1.32671
C          3.38297        1.41911       -0.49739
H          3.84661        1.00554       -1.39310
H          2.33319        1.64451       -0.68601
H          3.91215        2.31665       -0.16794
