36
1sa1msa2dma_120.log	Energy: -1025812.9734624
S          0.27502       -1.22742       -0.14232
O          0.67688       -0.92023        1.23453
O         -0.30805       -0.02221       -0.82485
O          1.34394       -1.84471       -0.94863
O         -0.88145       -2.32186       -0.12087
H         -1.68615       -1.92470        0.29272
S         -3.48978        0.31492        0.18342
O         -4.61851        1.00560        0.76224
O         -3.05598       -0.95563        0.77704
O         -2.26741        1.31909        0.16583
H         -1.44029        0.82627       -0.14596
C         -3.78087        0.01465       -1.54804
H         -4.59562       -0.70676       -1.61847
H         -4.05566        0.95884       -2.01769
H         -2.86484       -0.39110       -1.98125
N          3.52683       -0.49609        0.04193
C          3.84546       -0.80620        1.45026
C          4.68955       -0.46204       -0.86165
H          2.81912       -1.17477       -0.31698
H          4.49539       -0.02619        1.85225
H          2.90524       -0.84690        2.00048
H          4.35020       -1.77252        1.50880
H          5.38612        0.31107       -0.53118
H          5.19107       -1.43151       -0.85849
H          4.34322       -0.23771       -1.87122
H          2.99939        0.45049       -0.01112
N          2.03043        1.80408       -0.15993
C          2.54731        2.87450       -1.00954
C          1.64053        2.26855        1.17502
H          1.20522        1.38979       -0.59897
H          3.47440        3.26988       -0.58126
H          2.76588        2.48022       -2.00547
H          1.83842        3.70816       -1.11266
H          2.52851        2.61353        1.71569
H          0.91910        3.09601        1.13358
H          1.18929        1.43464        1.71679
