27
1sa1msa1a1ma_25.log	Energy: -951837.5236829
S         -2.20566       -0.67220       -0.06331
O         -0.93014       -0.87061       -0.82269
O         -2.05510       -0.95867        1.36463
O         -2.82028        0.60814       -0.42404
O         -3.24110       -1.77334       -0.64543
H         -3.09210       -2.60134       -0.16922
S          2.31493       -0.43528       -0.03845
O          2.48506        0.03626        1.33068
O          1.93552        0.56891       -1.04086
O          1.32393       -1.64568       -0.09133
H          0.35791       -1.35903       -0.34105
C          3.81621       -1.22498       -0.55846
H          4.04047       -2.02352        0.14845
H          3.67040       -1.61655       -1.56444
H          4.59766       -0.46503       -0.54185
N         -0.17433        1.34542        2.16339
H          0.76230        0.95263        2.25461
H         -0.33997        1.96319        2.95081
H         -0.32278        1.92004        0.55170
H         -0.83702        0.56970        2.22676
N         -0.43034        2.09865       -0.50031
H          0.25983        1.48081       -0.95040
C         -0.20944        3.51349       -0.84606
H         -0.36411        3.66451       -1.91445
H         -0.90893        4.13350       -0.28500
H          0.81315        3.78602       -0.58418
H         -1.37603        1.75509       -0.73576
