30
1sa1msa1a1dma_29.log	Energy: -976499.6613131
S          1.40478       -1.46755       -0.00786
O          2.19353       -0.64187        0.90192
O          0.41708       -2.37410        0.57097
O          0.81602       -0.64083       -1.12323
O          2.52048       -2.39724       -0.73447
H          2.06451       -3.13670       -1.15836
S         -2.40754        0.04049       -0.07424
O         -3.67469        0.65110       -0.41656
O         -1.40144        0.84432        0.62818
O         -1.76352       -0.49549       -1.41948
H         -0.77124       -0.63033       -1.31170
C         -2.68665       -1.44391        0.86093
H         -3.14009       -1.14836        1.80781
H         -3.36733       -2.07328        0.28776
H         -1.72136       -1.93255        1.01177
N          0.85451        1.59758        2.38853
H          1.08175        2.12133        3.22599
H          1.36088        0.71259        2.40014
H         -0.13794        1.37322        2.39580
N          1.22111        2.02471       -0.32638
C          2.65982        2.21372       -0.60046
C          0.33836        3.04878       -0.91755
H          0.95022        1.08042       -0.66221
H          2.98314        3.17000       -0.18503
H          3.20003        1.39267       -0.12843
H          2.83073        2.20001       -1.67822
H          0.61325        4.02888       -0.52334
H          0.45028        3.04448       -2.00330
H         -0.68963        2.81126       -0.64530
H          1.07883        1.98453        0.72901
