33
1sa1msa1ma1dma_35.log	Energy: -1001159.6726841
S          2.30097       -0.12984       -0.21945
O          1.24058       -0.64643       -1.07679
O          1.73596       -0.11218        1.26963
O          3.57724       -0.78651       -0.17757
O          2.53544        1.38758       -0.54971
H          1.65284        1.86684       -0.60642
S         -1.00625        1.84344        0.05853
O         -1.82662        1.15384       -0.96441
O          0.18522        2.53751       -0.48684
O         -0.65600        0.92115        1.18710
H          0.82652        0.32396        1.28404
C         -2.03217        3.11619        0.76140
H         -2.91448        2.64445        1.19368
H         -1.45294        3.63281        1.52657
H         -2.31185        3.80081       -0.03936
N         -0.13877       -2.59996        1.28994
H          0.07907       -3.59117        1.31805
C         -0.94376       -2.21202        2.45727
H         -0.44628       -2.40579        3.41465
H         -1.16054       -1.14298        2.38808
H         -1.89160       -2.75798        2.44397
H          0.75065       -2.10487        1.31669
N         -1.48785       -1.58089       -0.96014
C         -1.10869       -2.23340       -2.22932
C         -2.88893       -1.80838       -0.55810
H         -0.86634       -1.93536       -0.17589
H         -1.73627       -1.84791       -3.03452
H         -0.06202       -2.00807       -2.42712
H         -1.25171       -3.31152       -2.13245
H         -3.55825       -1.43525       -1.33435
H         -3.05213       -2.87675       -0.40283
H         -3.07265       -1.26433        0.36827
H         -1.35441       -0.55251       -1.03374
