38
1sa1msa1dma1eda_87.log	Energy: -1060562.7437596
S         -0.78308        1.45990       -0.89445
O         -0.41468        0.39054       -2.05093
O          0.15454        2.59373       -1.03601
O         -2.20211        1.72372       -1.16472
O         -0.57009        0.75226        0.39059
H         -2.61897       -0.32850       -0.89754
H          1.85621        0.63696        0.90536
S          1.49370       -1.73347       -0.04547
O          0.11197       -2.27499       -0.07747
O          1.87560       -1.09581        1.23955
O          1.79067       -0.83707       -1.20367
H          0.46023       -0.03248       -1.84122
C          2.56498       -3.14715       -0.23437
H          2.37820       -3.82678        0.59731
H          2.33277       -3.62651       -1.18538
H          3.59686       -2.79594       -0.22124
N          2.09750        1.64281        0.76428
C          3.48508        1.72886        0.27091
C          1.82857        2.36425        2.02361
H          1.44317        2.00722        0.03907
H          4.16144        1.33006        1.02852
H          3.55315        1.12947       -0.63716
H          3.73001        2.77076        0.05833
H          2.45974        1.95569        2.81420
H          2.03594        3.42631        1.88429
H          0.77650        2.21706        2.26662
H         -2.08442       -0.47361        1.91446
H         -3.62016       -1.12176        2.52421
H         -2.68229       -2.68277        0.89910
H         -4.18083       -1.94182        0.24863
H         -1.35612       -1.34497       -0.41638
H         -2.53240       -1.89075       -1.44044
H         -4.24902        0.99712        1.99807
H         -3.29360        1.12720        0.67506
C         -3.12771       -0.68822        1.64852
C         -3.15161       -1.75597        0.56210
N         -3.87499        0.48423        1.20993
N         -2.37957       -1.29627       -0.62827
