38
1sa1msa1dma1eda_316.log	Energy: -1060543.8198122
S         -2.37058        0.15043       -0.87431
O         -3.60764        0.01011       -1.61728
O         -2.28468        1.30825        0.04379
O         -1.86998       -1.07025       -0.19558
O         -1.21148        0.45377       -2.01048
H         -1.66962        0.55180       -2.85580
S          1.44026       -2.02652       -0.13337
O          2.45132       -3.03677        0.07830
O          1.19684       -1.05664        0.94931
O          0.08149       -2.77751       -0.45129
H         -0.69404       -2.14408       -0.43163
C          1.77468       -1.11075       -1.61400
H          2.03437       -1.82707       -2.39332
H          0.87347       -0.54950       -1.87043
H          2.59213       -0.42059       -1.37927
N         -0.82277        0.30617        2.18541
C         -0.04406        1.23440        3.03158
C         -1.69722       -0.62361        2.93322
H         -1.39134        0.82660        1.48525
H          0.60178        0.65226        3.69076
H          0.55083        1.86252        2.36620
H         -0.72809        1.84477        3.62382
H         -1.07981       -1.24550        3.58300
H         -2.40605       -0.04678        3.52904
H         -2.22660       -1.24334        2.21039
H         -0.15561       -0.24863        1.61375
H          2.99804        3.54080        0.13836
H          3.49817        2.91457       -1.43865
H          1.23843        3.66587       -1.66799
H          1.19627        1.89935       -1.69156
H          0.36676        3.62198        0.49875
H         -0.45709        2.40736       -0.21266
H          4.05616        1.39262        0.41830
H          2.45153        1.13266        0.64309
C          2.83968        2.72121       -0.58428
C          1.39026        2.76644       -1.05351
N          3.15307        1.40267       -0.04207
N          0.47089        2.69915        0.08687
