32
1sa1msa1a1eda_38.log	Energy: -1011240.3467792
S          2.88628       -0.32948        0.10323
O          2.95643       -1.64713        0.74479
O          1.97564       -0.28908       -1.06230
O          2.65343        0.78815        1.04357
O          4.33706       -0.04856       -0.57043
H          5.00473       -0.08853        0.12777
S         -2.52964       -1.01040       -0.05835
O         -2.27041       -2.12036       -0.99784
O         -2.92476        0.26877       -0.66148
O         -1.34655       -0.83122        0.87919
C         -3.87350       -1.53096        0.99457
H         -4.75062       -1.67585        0.36328
H         -3.59334       -2.46460        1.48232
H         -4.05627       -0.74909        1.73187
N          0.44140       -2.45710       -0.40014
H         -0.26293       -2.91633       -0.98127
H          1.12040       -3.08513        0.02496
H          0.97158       -1.73236       -0.92843
H         -0.10415       -1.93573        0.32213
H          0.84652        2.72882       -0.82366
H         -0.10386        1.34375       -1.37573
H         -1.33645        3.53568       -1.70552
H         -2.19315        2.40046       -0.65256
H         -0.72711        4.78543        0.22607
H         -2.23587        4.29705        0.62814
H          0.99898        1.31108        0.93984
H         -0.31054        2.31058        1.35747
C         -0.07068        2.15895       -0.65394
C         -1.31159        3.04205       -0.72618
N          0.01830        1.58051        0.71273
N         -1.30305        3.97037        0.40823
H         -0.58276        0.73142        0.80875
