38
1sa1msa1dma1eda_151.log	Energy: -1060550.6311012
S         -0.96547       -2.07335       -0.15128
O         -0.21587       -2.17919       -1.40197
O         -0.17786       -1.45692        0.96317
O         -2.29969       -1.47840       -0.26416
O         -1.15681       -3.58537        0.41510
H         -1.51272       -4.12803       -0.30168
S          2.61490        0.23173       -0.01642
O          3.95756        0.70637        0.24169
O          1.48530        1.13612        0.21674
O          2.40428       -1.07583        0.85545
H          1.43042       -1.31732        0.89269
C          2.49833       -0.37288       -1.68434
H          2.60201        0.48690       -2.34780
H          3.31351       -1.07971       -1.83957
H          1.52973       -0.86383       -1.80990
N         -1.00456        1.12035        1.67185
C         -2.42533        0.85059        1.97700
C         -0.19517        1.52968        2.83700
H         -0.59196        0.25828        1.27117
H         -2.88196        1.75772        2.37806
H         -2.92019        0.54381        1.05553
H         -2.49038        0.04251        2.70672
H         -0.61666        2.44204        3.26344
H         -0.20803        0.73323        3.58276
H          0.82393        1.70616        2.49491
H         -0.96904        1.87740        0.92856
H         -0.99844        3.42718       -2.37077
H          0.40020        2.82770       -1.44669
H         -0.61764        1.04861       -2.87591
H         -0.59067        0.65492       -1.16702
H         -2.94551        1.31430       -2.73310
H         -2.71578        0.16038       -1.58316
H         -1.12036        4.08315       -0.04629
H         -2.32328        3.01567       -0.40851
C         -0.68440        2.75257       -1.56030
C         -1.05686        1.31322       -1.90380
N         -1.31670        3.11607       -0.28259
N         -2.50482        1.12093       -1.84092
