33
1sa1msa1ma1dma_104.log	Energy: -1001153.4981038
S         -1.60219        0.14960       -0.10142
O         -1.85058       -0.86962        0.91745
O         -1.73794        1.54702        0.32724
O         -0.23373       -0.00698       -0.75530
O         -2.60474       -0.10904       -1.29818
H         -3.38903       -0.68762       -0.95690
S          2.79371       -0.98504        0.06915
O          2.59099       -0.73751        1.49040
O          3.14553        0.19089       -0.74185
O          1.57241       -1.73495       -0.56427
H          0.74355       -1.11740       -0.62058
C          4.04269       -2.22490       -0.15390
H          4.96364       -1.82309        0.26940
H          3.73069       -3.12225        0.37966
H          4.15464       -2.41599       -1.22049
N         -4.48834       -1.56679       -0.20183
H         -5.05635       -2.19683       -0.75825
C         -5.31918       -0.69772        0.64113
H         -5.97447       -1.25366        1.32164
H         -4.66010       -0.05906        1.23299
H         -5.93280       -0.05713        0.00362
H         -3.86644       -2.12466        0.37896
N          1.20860        2.16720       -0.08659
C          0.78194        3.35749       -0.84986
C          1.15447        2.33058        1.38630
H          0.58421        1.36128       -0.35402
H          1.40345        4.21190       -0.57589
H          0.88311        3.14631       -1.91449
H         -0.26520        3.54869       -0.61336
H          1.79762        3.16249        1.67931
H          0.11678        2.51645        1.66275
H          1.50338        1.40318        1.84284
H          2.14221        1.84044       -0.36799
