26
1sa1msa1dma_78.log	Energy: -940970.1409225
S         -2.44709        0.16214        0.08597
O         -3.55672        1.04899        0.28162
O         -1.63541       -0.28994        1.20217
O         -2.96327       -1.20418       -0.58628
O         -1.52918        0.78596       -1.02360
H         -3.67675       -1.00307       -1.21021
H         -0.67188        0.27935       -1.08552
S          1.54504       -1.27960       -0.05269
O          2.85114       -0.66722        0.02400
O          0.58298       -0.78224       -1.04733
O          0.86540       -1.22479        1.37818
H         -0.06540       -0.88463        1.32986
C          1.73246       -3.02503       -0.30862
H          2.21867       -3.15720       -1.27568
H          2.35787       -3.41503        0.49436
H          0.74482       -3.48523       -0.30072
N          2.34377        2.51024        0.19382
C          1.85569        2.84283       -1.13162
C          1.27502        2.36917        1.16406
H          2.87766        1.64884        0.15331
H          1.37481        3.82706       -1.10883
H          2.69251        2.89392       -1.83329
H          1.11763        2.12068       -1.52664
H          0.79736        3.34073        1.33258
H          0.47892        1.66727        0.85187
H          1.68159        2.02051        2.11676
