33
1sa1msa1a1tma_37.log	Energy: -1001155.7640719
S          1.29838       -1.59569        0.13381
O          1.01830       -0.34527        0.83049
O          0.82315       -1.44110       -1.36465
O          2.65037       -2.09444        0.10390
O          0.37402       -2.71896        0.72216
H         -0.56537       -2.36025        0.78855
S         -2.23171       -0.32201        0.01439
O         -2.00796        0.84217        0.89719
O         -2.00664       -1.63893        0.66047
O         -1.46052       -0.18369       -1.26634
H         -0.07702       -0.98541       -1.39110
C         -3.95158       -0.30686       -0.44653
H         -4.54078       -0.40304        0.46552
H         -4.16314        0.63821       -0.94670
H         -4.13173       -1.14874       -1.11471
N          4.04561        0.75108       -0.36068
H          3.79612       -0.21534       -0.15436
H          4.71258        1.04188        0.34737
H          4.54439        0.74222       -1.24509
N          0.29575        2.30552        0.13473
C         -0.76008        3.34289        0.04119
H         -1.48519        3.02877       -0.70799
H         -1.25947        3.42610        1.00533
H         -0.29656        4.29065       -0.24046
C          1.30431        2.62602        1.17749
H          0.79867        2.69299        2.14104
H          2.04417        1.82746        1.18755
H          1.77585        3.57833        0.92605
C          0.93765        2.05846       -1.18539
H          1.78040        1.38184       -1.03995
H          0.18990        1.62266       -1.84785
H          1.29771        3.01330       -1.57550
H         -0.18440        1.43404        0.42652
