26
1sa1msa1dma_16.log	Energy: -940998.1734522
S          1.88778       -0.95401       -0.04658
O          1.10394       -0.18213       -1.09031
O          3.31247       -0.95497       -0.31908
O          1.43032       -0.58579        1.29231
O          1.35359       -2.48348       -0.22362
H          1.86645       -2.90290       -0.92786
S         -2.28283       -0.32366        0.02927
O         -3.67932       -0.48079       -0.30309
O         -1.84451        0.97332        0.57423
O         -1.45599       -0.63643       -1.28258
H         -0.46131       -0.49490       -1.18273
C         -1.77380       -1.58344        1.17359
H         -2.37303       -1.44821        2.07488
H         -1.97240       -2.55217        0.71605
H         -0.71123       -1.45216        1.38989
N          0.51394        2.23890        0.03811
C          0.16359        3.29366       -0.93593
C          1.42605        2.66400        1.12401
H         -0.36216        1.83973        0.43025
H          1.07061        3.64024       -1.43265
H         -0.52602        2.87479       -1.66892
H         -0.31625        4.12266       -0.41418
H          2.35533        3.03001        0.68526
H          0.94819        3.45665        1.70142
H          1.62896        1.79608        1.75174
H          0.91708        1.41746       -0.46584
