40
1sa1msa2eda_304.log	Energy: -1095265.9730536
S         -0.87661       -1.19457       -0.84152
O         -0.31883       -0.96562        0.52638
O         -1.31525        0.05874       -1.46592
O          0.28781       -1.84452       -1.70470
O         -1.94897       -2.21665       -0.83316
H          1.11890       -1.32285       -1.57792
H         -3.32287       -1.29500       -0.64941
S          3.06203       -0.55770        0.36930
O          3.39504        0.69622        1.01623
O          2.53298       -0.50286       -1.00080
O          2.08398       -1.41807        1.26118
H          1.11555       -1.25765        0.99550
C          4.49085       -1.61112        0.38649
H          5.26611       -1.09796       -0.18337
H          4.80132       -1.74677        1.42228
H          4.22925       -2.56164       -0.07696
H         -5.24524        0.00527        1.23306
H         -4.81889       -1.72669        1.16686
H         -3.57744       -0.41481        2.99178
H         -2.50644       -1.23392        1.84995
H         -2.77732        1.59460        2.17383
H         -1.62223        0.72158        1.37257
H         -4.74716       -0.44724       -1.03007
H         -3.41339        0.34030       -0.36959
C         -4.44049       -0.71013        1.04608
C         -3.23393       -0.42345        1.95203
N         -3.98787       -0.52455       -0.35833
N         -2.61995        0.82915        1.53224
H          0.39318        1.56139        0.36654
H         -0.01569        2.81075        1.55666
H         -1.68091        2.78637       -0.20464
H         -0.75430        4.30344       -0.29001
H         -0.40852        1.98313       -2.03645
H         -0.81359        3.51254       -2.47591
H          2.35624        2.78158        0.78393
H          1.81390        3.34415       -0.64644
C          0.33676        2.65163        0.52791
C         -0.69491        3.21945       -0.44097
N          1.61657        3.32599        0.35157
N         -0.27175        2.96649       -1.81683
