30
1sa1msa2ma_56.log	Energy: -976492.7554459
S         -1.58080        0.52553        0.84464
O         -0.62416       -0.56496        1.22645
O         -2.94791        0.22894        1.24226
O         -1.05542        1.85556        1.23126
O         -1.53377        0.57553       -0.76254
H         -2.12624       -0.18466       -1.11221
S          2.48690       -0.74082        0.00428
O          3.90268       -0.96132        0.20061
O          2.08155        0.22355       -1.03711
O          1.85892       -0.30223        1.37357
H          0.82095       -0.33825        1.35129
C          1.66521       -2.27422       -0.36750
H          2.01724       -2.60050       -1.34652
H          1.93549       -2.99569        0.40339
H          0.59017       -2.08710       -0.37102
N         -3.16648       -1.43536       -1.29514
H         -3.85963       -1.14143       -0.60965
C         -2.53654       -2.69063       -0.86299
H         -3.24757       -3.51771       -0.75587
H         -1.77377       -2.97766       -1.59150
H         -2.04770       -2.51973        0.09921
H         -3.63863       -1.54937       -2.18597
N          0.88095        2.61537       -0.42636
H          1.55622        3.25356       -0.01125
H          1.37664        1.72861       -0.66542
C          0.22386        3.18997       -1.62317
H         -0.51217        2.46423       -1.96633
H         -0.27805        4.11731       -1.34816
H          0.96849        3.37608       -2.39699
H          0.14953        2.36559        0.30055
