39
1sa1msa1dma1tma_127.log	Energy: -1050463.4005926
S          0.84042       -1.51732        0.36934
O         -0.30154       -1.97584        1.18114
O          2.07572       -2.28273        0.49416
O          0.42576       -1.68646       -1.17192
O          1.07218       -0.04408        0.55594
H         -0.46789       -1.28216       -1.30001
H          2.49236        0.27697        0.12331
S         -3.05678       -0.48701       -0.28393
O         -4.03222       -1.53672       -0.50435
O         -1.93743       -0.38853       -1.23820
O         -2.46794       -0.55194        1.18333
H         -1.63564       -1.12462        1.22132
C         -3.85903        1.08859       -0.21016
H         -4.34536        1.23073       -1.17633
H         -4.60192        1.04672        0.58669
H         -3.09621        1.85610       -0.02685
N         -1.25593        3.08437        0.23995
C         -0.40096        2.75364       -0.88953
C         -0.69600        2.65125        1.51369
H         -1.42774        4.08382        0.26089
H         -0.29840        1.66694       -0.95266
H         -0.85662        3.11068       -1.81735
H          0.61197        3.19270       -0.80620
H         -0.56608        1.56658        1.49862
H          0.28980        3.10267        1.72835
H         -1.38165        2.91033        2.32489
N          3.50194        0.46224       -0.21295
C          3.65194       -0.26555       -1.49832
H          3.48001       -1.32578       -1.31116
H          2.89723        0.09847       -2.19615
H          4.65463       -0.09450       -1.89778
C          3.64324        1.92425       -0.38108
H          2.91045        2.26640       -1.11274
H          3.44971        2.41096        0.57547
H          4.65406        2.15917       -0.72364
C          4.40536       -0.07833        0.83108
H          4.21771        0.45228        1.76522
H          4.17146       -1.13495        0.96393
H          5.44428        0.06082        0.52164
