41
1sa1msa1tma1eda_46.log	Energy: -1085221.5663828
S          0.35525       -2.10319       -0.58339
O          0.33456       -1.28144        0.65882
O          0.59723       -1.04094       -1.77694
O          1.47820       -3.02065       -0.69202
O         -0.97975       -2.71156       -0.83106
H         -2.16497       -1.65856       -0.70542
S         -0.37851        2.20052       -0.59429
O          0.53615        2.89792       -1.50328
O          0.24457        1.79674        0.69051
O         -1.06666        1.02731       -1.25662
H         -0.00505       -0.25995       -1.65918
C         -1.71804        3.30213       -0.17457
H         -1.29031        4.18166        0.30762
H         -2.23193        3.58288       -1.09434
H         -2.37964        2.76511        0.50823
H         -4.42690       -0.34242        0.75160
H         -4.07802       -2.09355        0.66156
H         -3.27323       -1.12978        2.78869
H         -1.90823       -1.71111        1.82251
H         -2.09607        0.78575        2.83606
H         -1.18526        0.42945        1.52666
H         -3.50051       -0.87918       -1.38236
H         -2.34155        0.00411       -0.58375
C         -3.63617       -1.09429        0.69696
C         -2.68868       -0.94254        1.88250
N         -2.88800       -0.88742       -0.56984
N         -2.13375        0.40478        1.89965
N          2.68557        0.19750        0.76685
C          3.39136       -1.07018        1.09115
H          3.03862       -1.42613        2.05924
H          3.14694       -1.81606        0.33364
H          4.46551       -0.87531        1.12391
C          3.06063        0.69965       -0.58361
H          2.80590       -0.06584       -1.31637
H          2.49110        1.60580       -0.79547
H          4.13389        0.90366       -0.59114
C          2.90145        1.22832        1.81111
H          2.32624        2.11189        1.54119
H          2.54438        0.83753        2.76460
H          3.97002        1.44683        1.87206
H          1.66682       -0.03565        0.74018
