32
1sa1msa1a1eda_279.log	Energy: -1011226.8204800
S         -0.63443       -1.59937        0.31300
O         -1.73560       -2.52659        0.10203
O          0.72387       -2.18632        0.21919
O         -0.64418       -0.53040       -0.89694
O         -0.79165       -0.75810        1.53684
H         -1.60966       -0.32150       -1.12022
H         -0.08684        0.76057        1.26460
S          2.92267        0.51511       -0.15990
O          2.74501        0.73725        1.27382
O          2.08183        1.35777       -1.02296
O          2.78318       -0.99036       -0.52903
H          1.89706       -1.44362       -0.20480
C          4.61998        0.77119       -0.60782
H          4.84304        1.82040       -0.41296
H          5.23851        0.12041        0.00940
H          4.73689        0.54061       -1.66625
N         -0.02174        1.73712        0.87796
H          0.49014        2.33481        1.52083
H         -1.01113        2.02317        0.75079
H          0.49998        1.68319       -0.01189
H         -4.82502        0.64402        0.63638
H         -4.59774        2.37844        0.41240
H         -4.80900        1.32008       -1.71908
H         -3.17470        1.98717       -1.55522
H         -3.70730       -0.85849       -1.00352
H         -3.25703       -0.30145       -2.46757
H         -3.10310        1.71674        2.03475
H         -2.51202        0.46123        1.20492
C         -4.10873        1.40680        0.29213
C         -3.85062        1.20446       -1.19449
N         -2.88018        1.40911        1.09207
N         -3.22487       -0.09458       -1.47355
