26
1sa1msa1dma_81.log	Energy: -940970.0101370
S         -2.71909        0.61452       -0.03528
O         -3.80350        1.42936       -0.50039
O         -1.38704        1.16581        0.14816
O         -3.07983        0.00631        1.40841
O         -2.65002       -0.65567       -0.95377
H         -4.02201       -0.21757        1.43653
H         -1.81981       -1.18296       -0.76766
S          0.89458       -1.33528       -0.16389
O          1.55012       -0.90027       -1.37971
O         -0.44461       -1.93519       -0.28730
O          0.82036       -0.15715        0.89945
H          0.04250        0.42550        0.69917
C          1.93200       -2.45514        0.73179
H          2.06412       -3.33242        0.09782
H          2.88592       -1.95685        0.90657
H          1.43803       -2.71533        1.66684
N          3.41335        1.61278       -0.57415
C          2.73673        2.69072        0.12267
C          4.17293        0.75808        0.31456
H          2.74557        1.05536       -1.09520
H          3.47890        3.38182        0.53861
H          2.11593        3.25307       -0.57957
H          2.09633        2.34595        0.95501
H          5.01504        1.31706        0.73841
H          3.57992        0.36647        1.16460
H          4.58471       -0.08511       -0.24833
