27
1sa1msa1a1ma_124.log	Energy: -951828.1173724
S         -0.98893        0.95953        0.15121
O         -0.99380        0.03139        1.28424
O         -0.39575        0.29476       -1.07975
O         -2.28034        1.56900       -0.17931
O         -0.02048        2.17310        0.48942
H          0.88579        1.81171        0.63594
S          2.81844       -0.40614        0.15985
O          2.99594       -1.41108        1.18686
O          2.41365        0.94747        0.55983
O          1.83566       -0.92663       -0.96010
H          0.94443       -0.42464       -0.96474
C          4.32687       -0.26878       -0.77112
H          5.10242        0.04864       -0.07349
H          4.56078       -1.24923       -1.18551
H          4.18437        0.47030       -1.55874
N         -2.88367       -0.45359       -1.98096
H         -3.21412        0.48933       -1.75447
H         -3.08483       -1.08787       -1.08296
H         -3.28434       -0.80638       -2.84395
H         -1.85315       -0.35078       -2.02935
N         -3.21720       -1.69849        0.36671
H         -3.32608       -2.70472        0.45047
C         -4.30242       -0.99269        1.06976
H         -4.37409       -1.27088        2.12572
H         -4.10625        0.08027        1.00950
H         -5.25816       -1.20705        0.58330
H         -2.32855       -1.44366        0.80980
