27
1sa1msa1a1ma_125.log	Energy: -951830.4024293
S          0.97262        1.23360        0.13189
O          0.81351        0.14686       -0.89365
O          0.43510        0.74259        1.43294
O          2.32474        1.76327        0.18729
O          0.03860        2.43432       -0.33157
H         -0.85704        2.06945       -0.51505
S         -2.56259       -0.38026       -0.28325
O         -3.70548       -1.10370       -0.79153
O         -2.30087        0.98059       -0.76127
O         -1.25961       -1.25412       -0.54719
H         -0.46080       -0.64650       -0.76770
C         -2.64604       -0.32439        1.49284
H         -3.52683        0.26625        1.74846
H         -2.75466       -1.34419        1.86312
H         -1.73344        0.15217        1.85591
N          1.28074       -1.85177        1.27037
H          2.27240       -1.62010        0.81046
H          0.88224       -0.91897        1.53735
H          0.64455       -2.26078        0.58614
H          1.36361       -2.46370        2.07697
N          3.58239       -1.04212        0.13240
H          3.46378       -0.02714        0.20283
C          3.63928       -1.41877       -1.29143
H          4.48777       -0.96369       -1.81198
H          3.71480       -2.50575       -1.38188
H          2.71649       -1.08203       -1.76681
H          4.45736       -1.27079        0.59583
