36
1sa1msa1ma1tma_119.log	Energy: -1025797.7515385
S         -2.65377       -0.05710       -0.51936
O         -2.02798        1.26736       -0.68514
O         -3.87377       -0.24864       -1.33201
O         -1.63664       -1.13785       -1.09579
O         -2.89552       -0.39830        0.91141
H         -0.72846       -0.94046       -0.75432
H         -4.44712       -1.04679        1.07144
S          1.33089        0.92820        0.06579
O          2.11061        1.40903       -1.06035
O          0.73540       -0.41361       -0.04749
O          0.19424        1.95831        0.44798
H         -0.68509        1.71100        0.01583
C          2.31701        0.97596        1.53317
H          3.17440        0.31602        1.33857
H          2.64145        2.00594        1.68408
H          1.70823        0.62622        2.36629
N         -5.39986       -1.15471        0.63075
H         -5.12028       -0.96811       -0.36288
C         -6.33495       -0.12040        1.12628
H         -7.27381       -0.17818        0.57640
H         -6.51165       -0.26800        2.19120
H         -5.86990        0.85111        0.96184
H         -5.75261       -2.10200        0.74053
N          4.77079       -0.75772        0.23421
C          5.39603        0.36661       -0.44535
H          4.63604        0.92939       -0.99412
H          5.85662        1.03375        0.29054
H          6.18001        0.04364       -1.15621
C          5.73029       -1.49190        1.03880
H          6.18143       -0.82533        1.78058
H          5.22535       -2.30474        1.56970
H          6.54394       -1.93123        0.43009
C          4.09612       -1.63178       -0.71431
H          3.56279       -2.42156       -0.17735
H          3.36557       -1.05803       -1.28953
H          4.80483       -2.10468       -1.42060
