24
1sa1msa2a_20.log	Energy: -927174.5595850
S          1.81081       -0.89845       -0.00477
O          1.62761       -0.26244        1.31860
O          0.68274       -1.80342       -0.34280
O          2.20439        0.02176       -1.06568
O          3.08173       -1.89081        0.14352
H          2.83019       -2.61650        0.73106
S         -2.33947       -0.02478        0.00763
O         -1.71879        1.19962       -0.52865
O         -2.31279       -0.16344        1.45510
O         -1.75940       -1.28423       -0.71559
H         -0.75835       -1.44459       -0.53845
C         -4.00900       -0.10758       -0.58669
H         -4.53808        0.74255       -0.15542
H         -3.99349       -0.04595       -1.67425
H         -4.44508       -1.04692       -0.24814
N          0.40098        2.16189        1.05300
H         -0.44628        1.93860        0.49971
H          0.15457        2.70990        1.87118
H          0.83232        1.24987        1.32977
H          1.10966        2.65360        0.43320
N          2.37427        2.97020       -0.74742
H          2.10401        3.46662       -1.59059
H          2.53364        1.99114       -1.00317
H          3.25881        3.35790       -0.43553
