26
1sa1msa1dma_57.log	Energy: -940989.5786872
S          1.69793        1.28083       -0.08488
O          2.03113        2.68920       -0.14063
O          2.84371        0.33425       -0.09858
O          1.06987        0.95536        1.40385
O          0.62735        0.83191       -1.01131
H          0.14542        1.25624        1.42439
H          0.43810       -1.36157       -0.24684
S         -2.21614        0.02494        0.05350
O         -1.52161       -1.23933       -0.13178
O         -1.81848        0.91871        1.13429
O         -3.77261       -0.34442        0.31976
H         -4.04889        0.08882        1.14075
C         -2.32458        0.89522       -1.48415
H         -1.29637        1.17762       -1.72670
H         -2.74902        0.21610       -2.22357
H         -2.95845        1.76818       -1.33051
N          1.32502       -1.85889       -0.07977
C          1.53923       -2.83498       -1.16453
C          1.29908       -2.43032        1.28235
H          2.06032       -1.09222       -0.12101
H          0.73931       -3.57698       -1.15130
H          1.53640       -2.29981       -2.11400
H          2.50417       -3.32317       -1.02116
H          0.47477       -3.14042        1.36289
H          2.24958       -2.92968        1.47557
H          1.16365       -1.60809        1.98508
