32
1sa1msa1a1eda_67.log	Energy: -1011238.7643635
S          2.69403       -0.47307        0.00664
O          2.44331       -1.13400       -1.29541
O          3.21526        0.88602       -0.09069
O          1.53936       -0.64299        0.92236
O          3.83944       -1.36106        0.74992
H          4.69013       -1.14301        0.34552
S         -2.60379       -0.56337        0.11486
O         -2.28591       -0.90495       -1.29933
O         -2.55129        0.90588        0.37351
O         -1.77200       -1.32522        1.07611
C         -4.30325       -1.02877        0.37913
H         -4.39960       -2.09734        0.18632
H         -4.55917       -0.79884        1.41340
H         -4.92282       -0.45449       -0.30967
N          0.01975       -2.33868       -0.89884
H          0.93652       -1.94465       -1.21629
H         -0.02951       -3.33905       -1.06622
H         -0.07065       -2.13886        0.10725
H         -0.79731       -1.84964       -1.32649
H          0.19382        3.57502        0.96717
H          1.65902        2.54082        0.83223
H          1.07716        3.08373       -1.38062
H          0.54058        1.42668       -1.16789
H         -1.06313        3.08483       -2.23173
H         -1.71451        2.26528       -0.97411
H         -0.08100        1.72097        2.39589
H         -1.07013        1.36830        1.08922
C          0.59119        2.61864        0.62194
C          0.33176        2.46710       -0.87139
N         -0.08132        1.52801        1.39666
N         -0.99833        2.94174       -1.23088
H          0.44244        0.63462        1.25358
