41
1sa1msa1tma1eda_132.log	Energy: -1085209.0476317
S          0.13781        1.72908        0.31859
O         -0.23571        0.87535        1.48747
O          1.10349        2.77430        0.64723
O          0.59368        0.87859       -0.82436
O         -1.20271        2.41789       -0.15479
H         -2.02125        1.97667        0.32596
S         -0.00477       -2.49763        0.25365
O         -0.35582       -3.87428        0.53895
O          1.40325       -2.09697        0.32711
O         -0.85269       -1.59123        1.23579
H         -0.51809       -0.63259        1.29140
C         -0.62036       -2.04567       -1.35048
H         -0.09416       -2.66572       -2.07809
H         -1.69213       -2.23822       -1.37980
H         -0.42258       -0.98357       -1.50305
H         -4.76382        1.30648       -1.09333
H         -4.80350       -0.43103       -1.40186
H         -4.67627       -0.24595        0.94017
H         -3.03751       -0.69086        0.43196
H         -3.93415        1.97677        1.25141
H         -2.77241        1.03939        1.92903
H         -3.24160        0.55653       -2.88110
H         -2.34533        1.17109       -1.66088
C         -4.15783        0.38310       -1.05561
C         -3.78927        0.10172        0.39600
N         -2.97748        0.41541       -1.91260
N         -3.20899        1.29443        1.04583
N          3.20046        0.41421       -0.38632
C          3.74396        1.71251       -0.85895
H          3.56804        1.79576       -1.93192
H          3.21109        2.51190       -0.34232
H          4.81542        1.74954       -0.64884
C          3.35831        0.25876        1.08546
H          2.89208        1.11733        1.56992
H          2.85204       -0.65860        1.38443
H          4.42436        0.21507        1.32112
C          3.77114       -0.73520       -1.12817
H          3.28655       -1.64520       -0.77626
H          3.57420       -0.59590       -2.19198
H          4.84889       -0.77279       -0.95238
H          2.15997        0.45209       -0.57660
