33
1sa1msa1ma1dma_71.log	Energy: -1001153.7442444
S         -1.63672        0.40446       -0.55025
O         -1.79976        1.79336       -0.10930
O         -2.60742       -0.10509       -1.51348
O         -0.19682        0.23598       -1.02652
O         -1.69763       -0.52507        0.73753
H         -2.53797       -1.12364        0.68859
S          2.62764       -1.06534        0.07424
O          2.26425       -1.03975        1.48485
O          3.12685        0.20125       -0.48313
O          1.46206       -1.62358       -0.81079
H          0.69223       -0.93279       -0.90272
C          3.84090       -2.32908       -0.20665
H          4.72876       -2.04619        0.35939
H          3.43605       -3.27380        0.15529
H          4.05528       -2.37323       -1.27381
N         -3.89905       -1.91099        0.42383
H         -3.83284       -2.00895       -0.58658
C         -5.03435       -1.04730        0.77162
H         -6.00108       -1.45277        0.45147
H         -5.05470       -0.89675        1.85342
H         -4.88573       -0.07662        0.29392
H         -3.99799       -2.83623        0.82803
N          1.20753        2.18165        0.19978
C          0.97083        3.52391       -0.36963
C          0.89300        2.06399        1.64462
H          0.61300        1.48405       -0.32041
H          1.57946        4.25925        0.15957
H          1.23453        3.50808       -1.42723
H         -0.09082        3.74771       -0.26216
H          1.50794        2.77016        2.20546
H         -0.16820        2.27633        1.77438
H          1.10990        1.04166        1.95759
H          2.16358        1.84721        0.02380
