36
1sa1msa2dma_101.log	Energy: -1025814.4298680
S          0.29527        2.11449        0.07631
O          1.28325        1.45692        0.93544
O          0.20685        1.56402       -1.28687
O         -1.03875        2.30270        0.69775
O          0.89245        3.61878       -0.06363
H          0.22342        4.16657       -0.49578
S         -2.34951       -0.83559        0.11853
O         -3.30376       -1.89220        0.38226
O         -0.92694       -1.09792        0.36040
O         -2.79107        0.42539        0.95536
H         -2.09226        1.15519        0.89814
C         -2.50383       -0.28814       -1.56739
H         -2.25253       -1.13781       -2.20445
H         -3.53605        0.02083       -1.73121
H         -1.79913        0.53257       -1.72224
N          1.75423       -1.21432        1.31814
C          3.12397       -0.82210        1.70069
C          1.28882       -2.47737        1.91949
H          1.11779       -0.43439        1.52641
H          3.82438       -1.58228        1.34872
H          3.34133        0.14012        1.23858
H          3.19736       -0.72955        2.78605
H          1.94412       -3.28706        1.59175
H          1.32048       -2.40208        3.00851
H          0.26759       -2.65759        1.58726
H          1.69932       -1.25497        0.22550
N          1.59147       -1.08204       -1.38460
C          1.04151       -2.25788       -2.05205
C          2.81538       -0.58025       -2.00563
H          0.90281       -0.32558       -1.39550
H          1.75546       -3.08604       -1.98775
H          0.11877       -2.55245       -1.54682
H          0.82874       -2.07690       -3.11597
H          3.61798       -1.31749       -1.89306
H          2.68596       -0.37299       -3.07717
H          3.11096        0.34703       -1.50959
