40
1sa1msa2eda_24.log	Energy: -1095297.5551534
S         -2.52402       -0.12797       -0.21800
O         -3.35667       -1.25704        0.19103
O         -3.19044        1.16312       -0.34711
O         -1.22319       -0.05575        0.51077
O         -1.95605       -0.51493       -1.72478
H         -2.71644       -0.65639       -2.30436
S          3.00482       -0.03888       -0.18987
O          2.84197       -1.16496       -1.15006
O          2.21540       -0.23709        1.04775
O          2.73825        1.29416       -0.80497
C          4.73137       -0.03054        0.25771
H          4.96929       -0.99364        0.70951
H          5.31550        0.12486       -0.64940
H          4.89665        0.77976        0.96798
H          1.04706       -3.97524        0.43352
H          1.10500       -2.57541        1.53891
H         -0.83751       -4.19192        2.02298
H         -1.34055       -2.53049        1.70158
H         -1.95149       -4.81586        0.12105
H         -2.56636       -3.28031        0.05212
H          1.32150       -1.91552       -0.80049
H         -0.24178       -2.59310       -1.05869
C          0.51542       -3.08263        0.77339
C         -0.89973       -3.42231        1.24597
N          0.39826       -2.16416       -0.38169
N         -1.71532       -3.83300        0.10301
H         -0.05241       -1.28521       -0.06570
H          0.37682        3.78242       -1.07820
H         -0.79492        2.49351       -1.43545
H         -1.93415        4.53188       -0.51135
H         -2.15747        3.10742        0.50168
H         -0.38429        5.37011        1.08384
H         -1.45513        4.61799        2.06635
H          1.30615        1.87025       -0.12989
H          0.55107        2.69287        1.14901
C         -0.34837        3.09132       -0.63945
C         -1.41607        3.83348        0.15776
N          0.38954        2.18626        0.27219
N         -0.78950        4.47029        1.31794
H         -0.17992        1.33996        0.47744
