30
1sa1msa1a1dma_47.log	Energy: -976497.0723534
S          1.05376        1.66521       -0.00275
O          0.39263        1.41237       -1.27475
O          0.26006        1.25508        1.18978
O          2.44416        1.16728        0.09535
O          1.15717        3.28008        0.07410
H          1.60454        3.52107        0.89674
S         -2.56546       -0.53457       -0.04556
O         -3.86401       -1.08851        0.27280
O         -1.41018       -1.43453       -0.12853
O         -2.26471        0.58814        1.03203
H         -1.29705        0.85897        1.04396
C         -2.65859        0.37755       -1.56795
H         -2.87478       -0.34190       -2.35877
H         -3.46830        1.10119       -1.47456
H         -1.69636        0.86870       -1.72759
N          0.68156       -1.69276        1.93242
H         -0.21552       -1.91705        1.49992
H          0.64020       -0.69413        2.13944
H          0.76185       -2.20204        2.80564
N          2.36895       -1.55639       -0.23302
C          1.55454       -1.87902       -1.42589
C          3.66255       -2.25731       -0.16189
H          2.51946       -0.52463       -0.19557
H          1.38670       -2.95695       -1.46265
H          0.59662       -1.36520       -1.33831
H          2.07856       -1.54762       -2.32369
H          3.49015       -3.33439       -0.12169
H          4.26126       -2.01420       -1.04157
H          4.18966       -1.93723        0.73748
H          1.78462       -1.74735        0.64673
