27
1sa1msa1a1ma_123.log	Energy: -951828.6100364
S         -1.22305       -1.20982       -0.22337
O         -1.08502       -0.44489       -1.46512
O         -0.77909       -0.38893        0.96752
O         -2.55408       -1.77698        0.03214
O         -0.24143       -2.45922       -0.29037
H          0.67063       -2.11492       -0.43536
S          2.50215        0.22550       -0.04352
O          2.63967        1.19797       -1.10886
O          2.17819       -1.16255       -0.39476
O          1.47543        0.73331        1.04224
H          0.57144        0.24232        0.98314
C          3.99709        0.21041        0.91815
H          4.80178       -0.09014        0.24641
H          4.16937        1.21743        1.29750
H          3.88035       -0.50522        1.73113
N         -3.40090        0.52680        1.30949
H         -2.59734        0.48359        1.93930
H         -3.13055        1.23335        0.47714
H         -3.44939       -0.42279        0.88957
H         -4.25282        0.77388        1.80304
N         -2.50257        2.02113       -0.71858
H         -2.12097        1.26380       -1.29557
C         -1.38492        2.86640       -0.26263
H         -0.84262        3.33068       -1.09154
H         -1.76087        3.65067        0.40014
H         -0.68129        2.24363        0.29231
H         -3.14149        2.55672       -1.29892
