36
1sa1msa1ma1tma_44.log	Energy: -1025814.5217667
S          1.45790        0.44793        0.79351
O          1.05162        0.75848       -0.61090
O          1.06194        1.48686        1.74253
O          0.99094       -0.92342        1.16168
O          3.03507        0.40673        0.81399
H          3.37365       -0.28597        0.13644
S         -2.03303       -1.70667       -0.08100
O         -2.94451       -2.57318       -0.79982
O         -2.13324       -0.25989       -0.28956
O         -0.56776       -2.19132       -0.39736
H          0.10416       -1.64959        0.14997
C         -2.16807       -1.99689        1.67241
H         -3.15226       -1.64902        1.98805
H         -2.06182       -3.06738        1.84715
H         -1.37135       -1.43864        2.16817
N          3.86898       -1.36496       -0.97883
H          4.24322       -0.85221       -1.77168
C          2.73818       -2.20982       -1.40053
H          3.00899       -2.93612       -2.17486
H          2.35332       -2.74286       -0.52987
H          1.93864       -1.56644       -1.77223
H          4.62525       -1.93516       -0.61220
N         -0.92176        2.56354       -0.52489
C         -1.75859        2.49164       -1.74616
H         -1.10172        2.43510       -2.61492
H         -2.36784        1.58994       -1.68829
H         -2.38386        3.38570       -1.80568
C         -1.73990        2.60035        0.71523
H         -2.41239        1.74467        0.70563
H         -1.05943        2.52647        1.56372
H         -2.29873        3.53939        0.73660
C          0.04080        3.69203       -0.56381
H          0.66164        3.63642        0.33099
H          0.67081        3.58391       -1.44656
H         -0.51034        4.63466       -0.60024
H         -0.31529        1.69909       -0.51163
