28
1sa1msa1eda_52.log	Energy: -975731.3613536
S         -1.51590       -1.47346       -0.02141
O         -2.51054       -0.99930        0.94314
O         -1.50949       -0.69293       -1.28150
O         -0.15291       -1.66766        0.51955
O         -1.92908       -2.98605       -0.42032
H         -2.88944       -3.01365       -0.52782
S          2.70687        0.20326        0.05211
O          3.84585        0.85928        0.65497
O          2.12977        0.78147       -1.16596
O          1.57341        0.12349        1.16577
H          0.86209       -0.55674        0.93583
C          3.06951       -1.50601       -0.27989
H          3.81543       -1.52358       -1.07486
H          3.46384       -1.95135        0.63329
H          2.14765       -1.99885       -0.59291
H         -1.10151        3.70889       -0.60098
H         -1.81428        2.75464       -1.92773
H         -3.38819        3.06783        0.09092
H         -3.08765        1.38307       -0.35522
H         -2.25951        2.66374        2.07065
H         -2.34914        1.05040        1.68404
H          0.49842        1.95066       -1.16073
H         -0.26640        1.63525        0.28925
C         -1.49518        2.72965       -0.88442
C         -2.62452        2.28388        0.05756
N         -0.40601        1.73922       -0.73023
N         -2.05763        1.96958        1.36416
H         -0.71625        0.79975       -1.07721
