32
1sa1msa1a1eda_324.log	Energy: -1011210.5023284
S          2.10049       -0.59972        0.48774
O          3.41024       -1.02369        0.92190
O          0.99713       -0.57975        1.43916
O          2.18912        0.84162       -0.12805
O          1.71520       -1.51789       -0.73566
H          3.11698        0.95112       -0.59348
H          0.74579       -1.41501       -0.95909
S         -1.93793       -1.56366       -0.25795
O         -2.20651       -2.98279       -0.17513
O         -0.84766       -1.11940       -1.14837
O         -1.65098       -0.96531        1.19070
H         -0.67619       -0.83443        1.32379
C         -3.40320       -0.67482       -0.68676
H         -3.70723       -1.04401       -1.66745
H         -4.16042       -0.91722        0.05976
H         -3.18763        0.40314       -0.71351
N          4.57317        0.95028       -1.17450
H          5.06763        1.83590       -1.13759
H          4.62516        0.59693       -2.12510
H          5.05458        0.28853       -0.56899
H         -2.20208        3.54650        1.31698
H         -2.59304        1.82747        1.48217
H         -0.18422        2.07337        1.44970
H         -0.70073        1.25553       -0.02533
H          0.09696        4.05780        0.13393
H          0.75143        2.85004       -0.74974
H         -3.83642        3.03511       -0.33021
H         -2.41324        3.09218       -1.14512
C         -2.17435        2.57398        0.79729
C         -0.72520        2.21180        0.50330
N         -2.94220        2.57151       -0.44871
N         -0.12155        3.21009       -0.38061
