36
1sa1msa2dma_225.log	Energy: -1025798.4807045
S          1.12138        0.55755       -0.34461
O         -0.00034        0.65386       -1.29748
O          2.20964        1.50909       -0.53676
O          0.53865        0.89889        1.10382
O          1.62907       -0.85752       -0.25530
H         -0.29065        0.37789        1.23666
H          3.14660       -0.82057        0.03367
S         -2.13877       -1.65369        0.17777
O         -3.47389       -2.18473        0.32029
O         -1.64709       -0.69974        1.18063
O         -2.03102       -0.99656       -1.25654
H         -1.25519       -0.36198       -1.30431
C         -0.96660       -2.98904        0.09117
H         -0.99509       -3.50137        1.05373
H         -1.27610       -3.65802       -0.71166
H          0.01941       -2.55814       -0.09681
N         -2.39743        2.67275       -0.31500
C         -3.65761        2.02843       -0.63960
C         -2.21402        2.85158        1.11402
H         -1.62255        2.14361       -0.70115
H         -4.48549        2.69641       -0.37332
H         -3.71202        1.84066       -1.71528
H         -3.81826        1.07110       -0.11387
H         -2.95512        3.56767        1.48911
H         -2.32802        1.91727        1.69249
H         -1.21978        3.26204        1.30850
N          4.20004       -0.69192        0.22638
C          4.34539        0.19588        1.40911
C          4.83427       -0.15544       -1.00494
H          4.58136       -1.61280        0.43868
H          3.86598        1.14477        1.16828
H          3.83570       -0.26329        2.25613
H          5.40409        0.33848        1.63152
H          4.33472        0.78309       -1.24504
H          5.90028       -0.00057       -0.83056
H          4.68138       -0.86876       -1.81485
