38
1sa1msa1dma1eda_146.log	Energy: -1060551.6939077
S          0.08186       -1.56124       -0.54283
O          1.24659       -2.30672       -0.99549
O         -1.21487       -2.26104       -0.61562
O          0.27683       -0.91251        0.78997
O         -0.01688       -0.32794       -1.59602
H          2.97047        0.10467        0.08055
H         -0.81499        0.20548       -1.36484
S         -3.20173        0.45763        0.25264
O         -4.47130        1.14569        0.28127
O         -2.11888        1.02122       -0.57049
O         -3.47172       -1.03139       -0.19346
H         -2.61213       -1.52771       -0.37490
C         -2.57032        0.28136        1.90663
H         -2.41799        1.28724        2.30070
H         -3.31654       -0.25138        2.49596
H         -1.62613       -0.26600        1.85194
N          2.99375       -0.43670        1.00642
C          3.45786        0.45491        2.08730
C          3.78131       -1.67550        0.84162
H          1.99092       -0.68147        1.13926
H          4.50214        0.71898        1.90715
H          2.83227        1.34974        2.06734
H          3.37287       -0.05746        3.04767
H          4.81015       -1.41540        0.58417
H          3.77076       -2.23966        1.77616
H          3.32075       -2.26514        0.04858
H          0.40022        2.42758       -1.38358
H          1.13535        3.80343       -0.56778
H          2.64072        2.89608       -2.22594
H          3.33312        2.76381       -0.59788
H          1.90768        0.49651       -1.81087
H          3.50928        0.73215       -2.04327
H          0.28203        2.64067        1.15560
H          0.60444        1.17359        0.56053
C          1.18518        2.71473       -0.66882
C          2.54981        2.37910       -1.26101
N          0.98693        2.11384        0.65142
N          2.74236        0.92515       -1.40628
