39
1sa1msa1dma1tma_80.log	Energy: -1050472.0972275
S         -1.11688       -0.67666       -0.42047
O         -0.55377        0.00539        0.78270
O         -1.96214        0.23391       -1.21186
O         -0.03486       -1.31655       -1.21327
O         -2.00969       -1.86810        0.08937
H         -2.93798       -1.51900        0.39210
S          3.09161       -0.74854        0.23972
O          2.79721       -0.18838        1.55244
O          3.15733        0.20811       -0.86975
O          2.14165       -1.93897       -0.11843
H          1.23700       -1.65515       -0.53834
C          4.62794       -1.63877        0.32633
H          5.39994       -0.91594        0.59123
H          4.53679       -2.40410        1.09678
H          4.82628       -2.08323       -0.64825
N         -4.36593       -0.93753        0.74139
C         -5.07569       -0.80362       -0.53455
C         -4.18232        0.34577        1.42343
H         -4.86993       -1.57611        1.34953
H         -4.45397       -0.21026       -1.20967
H         -5.21329       -1.79217       -0.97807
H         -6.05571       -0.31974       -0.41848
H         -3.56198        0.98348        0.78851
H         -5.13661        0.85491        1.61962
H         -3.65502        0.18570        2.36627
N          0.47123        2.30933       -0.05792
C         -0.75118        3.10315        0.21121
H         -1.58927        2.60363       -0.27740
H         -0.91900        3.13650        1.28825
H         -0.61832        4.11355       -0.18278
C          1.65357        2.82186        0.67456
H          1.46358        2.74484        1.74521
H          2.51306        2.20438        0.41751
H          1.82382        3.86319        0.38981
C          0.72731        2.18785       -1.51970
H          1.57353        1.51538       -1.66135
H         -0.16467        1.76873       -1.98680
H          0.94590        3.18109       -1.92000
H          0.23960        1.34005        0.30687
