38
1sa1msa1dma1eda_285.log	Energy: -1060543.3861780
S         -2.73251       -0.54845       -0.30158
O         -3.67812        0.50381       -0.00986
O         -1.75621       -0.12610       -1.44538
O         -2.00760       -1.19617        0.77028
O         -3.49594       -1.75056       -1.05328
H         -4.12348       -1.37157       -1.68500
S          0.50291        2.13829       -0.08175
O          1.71645        1.38118       -0.46327
O          0.02245        1.80583        1.28122
O         -0.58108        2.03057       -1.11111
H         -1.29036        0.80140       -1.27590
C          0.93063        3.86536       -0.07204
H          1.71783        4.01119        0.66781
H          1.27886        4.13354       -1.06935
H          0.03785        4.43111        0.19401
N          0.68572       -0.78622        2.00769
C          2.12266       -0.54559        2.26526
C         -0.00468       -1.53985        3.07039
H          0.23689        0.13851        1.84944
H          2.62867       -1.50349        2.39724
H          2.54394       -0.02167        1.40650
H          2.23271        0.06189        3.16521
H          0.45877       -2.52348        3.16800
H          0.08596       -0.99959        4.01479
H         -1.05238       -1.64664        2.79595
H          0.61352       -1.26771        1.05773
H          2.67354       -1.62852       -2.78704
H          3.89121       -2.67735       -2.04277
H          1.70103       -3.41024       -1.31402
H          2.59782       -2.73398        0.04897
H          1.22634       -0.60193       -0.81577
H          0.16422       -1.77744       -1.19042
H          4.67768       -0.52957       -1.71049
H          3.26402        0.05130       -1.14324
C          3.15234       -1.89684       -1.83030
C          2.09845       -2.48050       -0.89481
N          3.84688       -0.78163       -1.18774
N          0.97494       -1.57174       -0.61685
