36
1sa1msa2dma_123.log	Energy: -1025813.2225147
S          0.04027       -2.12149        0.23508
O         -0.82004       -3.23996        0.55633
O          1.49586       -2.33932        0.39722
O         -0.25608       -1.46416       -1.07514
O         -0.35831       -0.98496        1.34005
H         -1.70020       -0.67059       -0.94581
H          0.25831       -0.23095        1.21432
S          2.56154        0.88646       -0.15358
O          3.53590        1.94737       -0.04451
O          1.26517        1.07184        0.53280
O          3.21750       -0.44371        0.35638
H          2.54499       -1.21105        0.38910
C          2.20659        0.55225       -1.86383
H          1.78812        1.46569       -2.28908
H          3.14573        0.29737       -2.35480
H          1.48505       -0.26812       -1.90715
N         -2.57540       -0.12034       -0.74547
C         -3.42262       -0.90644        0.17708
C         -3.23407        0.23701       -2.01364
H         -2.22718        0.76820       -0.25368
H         -3.68998       -1.85349       -0.29379
H         -2.84829       -1.10979        1.08053
H         -4.32340       -0.33701        0.41611
H         -3.51730       -0.67097       -2.54892
H         -4.12483        0.83472       -1.80918
H         -2.53926        0.81472       -2.62454
N         -1.54953        2.12369        0.52373
C         -1.88866        2.06495        1.94752
C         -1.86987        3.41712       -0.07714
H         -0.54730        1.95471        0.42815
H         -2.97064        2.18097        2.07004
H         -1.59740        1.09211        2.35055
H         -1.39028        2.85204        2.52980
H         -2.95262        3.57791       -0.04803
H         -1.38672        4.25678        0.44226
H         -1.54936        3.42760       -1.12244
