40
1sa1msa2eda_175.log	Energy: -1095285.8786956
S          2.00418       -1.27409       -0.47580
O          2.07226       -1.15845        1.01484
O          3.24123       -0.92234       -1.15062
O          1.37242       -2.56307       -0.86516
O          0.86763       -0.21816       -0.91015
H         -0.24666       -2.40088       -1.01050
H          1.27253        0.72258       -0.95012
S         -2.60478        1.11538       -0.27909
O         -3.99140        1.52077       -0.09150
O         -2.39892        0.09377       -1.35213
O         -1.92681        0.67674        0.98884
H         -1.05520       -0.52401        1.42153
C         -1.67877        2.54954       -0.80474
H         -1.74585        3.30220       -0.01828
H         -0.64485        2.24409       -0.96998
H         -2.12350        2.91957       -1.72892
H          3.49144        1.58285        0.35294
H          3.56449        3.29772       -0.07833
H          2.62674        3.14710        2.10335
H          1.32484        3.64190        1.03841
H          0.30450        1.58379        1.23973
H          1.66788        0.83427        1.75414
H          1.61355        2.92945       -1.45205
H          2.74854        1.81903       -1.84078
C          2.88040        2.45757        0.10595
C          1.97529        2.79538        1.29402
N          2.11118        2.11379       -1.10412
N          1.14709        1.70700        1.79280
H         -2.77590       -2.08442        0.49694
H         -2.21997       -3.73892        0.18639
H         -1.45636       -3.10437        2.34147
H         -0.04702       -3.27741        1.27934
H         -0.49091       -1.15617        2.85946
H          0.54361       -1.18304        1.54910
H         -1.71913       -2.72248       -1.76179
H         -1.51662       -1.21172       -1.12228
C         -1.89536       -2.70336        0.30626
C         -0.93227       -2.67160        1.48761
N         -1.29133       -2.24256       -0.97251
N         -0.46601       -1.30409        1.85253
