38
1sa1msa1dma1eda_318.log	Energy: -1060544.7374193
S         -0.85933        2.01433       -0.56003
O         -0.85283        1.34821       -1.86006
O         -1.75256        1.34821        0.43151
O          0.46025        2.30803        0.02720
O         -1.47821        3.49327       -0.78663
H         -2.24331        3.41342       -1.37260
S         -1.58771       -2.08699       -0.02953
O         -2.14465       -3.39351        0.23642
O         -0.40132       -1.66632        0.73323
O         -2.73525       -1.02436        0.18362
H         -2.36879       -0.08442        0.23677
C         -1.19186       -1.93189       -1.75456
H         -0.36199       -2.61051       -1.95624
H         -2.07551       -2.22209       -2.32309
H         -0.91678       -0.89319       -1.95494
N          0.71224        0.46356        2.09821
C          2.03541       -0.02295        2.55456
C         -0.14929        1.01244        3.17009
H          0.81736        1.18959        1.36113
H          1.88122       -0.77296        3.33223
H          2.56850       -0.47208        1.70921
H          2.59964        0.81969        2.95749
H         -0.34662        0.22929        3.90325
H          0.36591        1.84815        3.64570
H         -1.07834        1.35345        2.71406
H          0.21200       -0.31327        1.62626
H          3.80851       -1.51808       -2.10139
H          2.60028       -2.42139       -1.17221
H          1.59036       -0.49364       -2.36127
H          1.40392       -0.37677       -0.61482
H          3.25101        1.18551       -2.24596
H          2.14922        1.69228       -1.14179
H          4.59140       -1.96341        0.14922
H          4.30797       -0.34993       -0.01639
C          3.14109       -1.46982       -1.22378
C          2.14151       -0.33478       -1.42234
N          3.86585       -1.26538        0.02908
N          2.81792        0.95850       -1.35697
