35
1sa1msa1ma1eda_155.log	Energy: -1035887.9659111
S          1.09584       -1.83518       -0.31412
O          0.55555       -1.51360       -1.63870
O          2.31893       -1.15647        0.09449
O          0.04288       -1.73622        0.75581
O          1.50415       -3.40319       -0.36062
H          0.85400       -3.86760       -0.90499
S         -2.67677        0.26400        0.08665
O         -1.67799        1.01419        0.85535
O         -4.07800        0.57733        0.26340
O         -2.49909       -1.28159        0.39323
H         -1.52690       -1.51262        0.49120
C         -2.24127        0.37896       -1.63312
H         -2.28351        1.43261       -1.91136
H         -1.23139       -0.01588       -1.76173
H         -2.96882       -0.20287       -2.19907
N          0.70181        0.59378        2.17791
H          0.42563       -0.25837        1.65165
H          0.80105        1.39699        1.47182
C          1.95161        0.36987        2.93131
H          2.25554        1.29764        3.41761
H          1.80051       -0.40953        3.67850
H          2.71110        0.04374        2.22142
H         -0.09272        0.83103        2.76976
H          1.74380        3.94100       -1.07302
H          2.79110        3.30902        0.20945
H          3.19715        2.11646       -1.91518
H          2.55777        1.01585       -0.69278
H          1.16788        1.95442       -3.05134
H          1.11676        0.49051       -2.29803
H          0.38169        3.53630        0.82097
H          0.06409        2.33747       -0.24171
C          1.94569        3.06261       -0.44225
C          2.30246        1.87017       -1.32658
N          0.78171        2.71263        0.38148
N          1.15187        1.49493       -2.14847
