36
1sa1msa2dma_140.log	Energy: -1025811.0009052
S          0.97367        0.51391        0.63676
O          0.99603       -0.86725        0.06527
O          0.02862        0.69099        1.74105
O          2.41969        0.74905        1.19911
O          0.75579        1.52305       -0.44872
H          3.10918        0.20765        0.60490
H         -0.60142        2.23998       -0.31004
S         -2.39070       -1.64095       -0.23031
O         -3.43134       -2.53744       -0.68999
O         -2.52183       -0.20862       -0.51331
O         -1.02635       -2.17013       -0.82042
H         -0.24484       -1.59974       -0.51616
C         -2.17169       -1.81677        1.52803
H         -3.11160       -1.52205        1.99697
H         -1.95243       -2.86360        1.73773
H         -1.35808       -1.15741        1.84194
N         -1.47013        2.87497       -0.29939
C         -2.30468        2.58621        0.89464
C         -2.18013        2.71786       -1.59239
H         -1.09586        3.82028       -0.22747
H         -2.68978        1.57317        0.78666
H         -1.66943        2.63506        1.77808
H         -3.11895        3.31208        0.94672
H         -2.50172        1.67932       -1.67121
H         -3.03961        3.39037       -1.62255
H         -1.48558        2.95378       -2.39900
N          3.94265       -0.65873       -0.32260
C          5.28086       -0.98576        0.16410
C          3.93313       -0.04891       -1.65423
H          3.35406       -1.48897       -0.33664
H          5.85250       -0.06101        0.28313
H          5.20358       -1.46887        1.14044
H          5.82804       -1.64742       -0.52135
H          4.46049        0.90818       -1.61082
H          4.41749       -0.68526       -2.40701
H          2.89884        0.14070       -1.94832
