41
1sa1msa1tma1eda_159.log	Energy: -1085204.5787539
S         -0.63942       -1.44007        0.07068
O         -1.15116       -2.70908       -0.43441
O          0.63170       -1.49243        0.82788
O         -0.61148       -0.37112       -0.97070
O         -1.67198       -0.91999        1.19469
H         -2.59725       -1.14667        0.86227
S          3.63831       -0.12220       -0.10649
O          3.27346        0.71305        1.03815
O          3.35319        0.42619       -1.42730
O          3.03833       -1.56531        0.05206
H          2.04957       -1.54781        0.31588
C          5.36488       -0.53018       -0.01045
H          5.59780       -1.22803       -0.81432
H          5.91642        0.40190       -0.13592
H          5.56205       -0.97261        0.96531
H         -6.00150        0.19326        0.08623
H         -5.32825        1.38465       -1.02930
H         -4.87281       -0.82590       -1.86665
H         -3.33636       -0.07516       -1.39271
H         -4.78463       -1.99590        0.29781
H         -3.41927       -2.29920       -0.56244
H         -4.80385        1.95195        1.24399
H         -3.96435        0.56782        1.44159
C         -5.05689        0.61994       -0.29422
C         -4.28030       -0.47701       -1.01002
N         -4.25521        1.25450        0.75219
N         -3.94634       -1.56802       -0.08482
N         -0.05962        2.05504       -0.06840
C          0.19836        1.89310        1.38756
H         -0.59314        1.27006        1.80552
H          1.16411        1.40263        1.51682
H          0.20463        2.88076        1.85546
C          1.04905        2.76066       -0.75399
H          1.97868        2.22094       -0.58150
H          0.84128        2.78514       -1.82411
H          1.11745        3.77744       -0.35908
C         -1.37123        2.69658       -0.32556
H         -1.52530        2.75101       -1.40448
H         -2.17232        2.10170        0.12429
H         -1.36210        3.70438        0.09813
H         -0.14438        1.07447       -0.46545
