30
1sa1msa2ma_35.log	Energy: -976492.1127696
S         -1.43085        0.89934       -0.49151
O         -1.11964       -0.42025       -1.14296
O         -0.90591        0.90391        0.90125
O         -0.98714        2.05393       -1.27804
O         -2.99788        0.97451       -0.41820
H         -3.31130        0.20547        0.19883
S          2.08343       -1.18087        0.02874
O          2.19295       -1.00249        1.46889
O          2.34266        0.02378       -0.78707
O          0.73470       -1.82546       -0.38350
H         -0.04303       -1.14909       -0.69401
C          3.21964       -2.44215       -0.49361
H          4.22279       -2.09942       -0.23889
H          2.97816       -3.35892        0.04412
H          3.11306       -2.57844       -1.56910
N         -3.47723       -1.06100        1.16920
H         -2.61110       -1.00754        1.70175
C         -3.53202       -2.30689        0.39102
H         -3.44828       -3.20752        1.00978
H         -4.47598       -2.34202       -0.15734
H         -2.71895       -2.29345       -0.33702
H         -4.24214       -1.00706        1.83403
N          1.30635        2.35007        0.27379
H          0.60842        1.89111        0.89467
H          1.85203        1.56103       -0.13133
C          2.14441        3.36149        0.94167
H          2.84626        3.78339        0.22254
H          1.50837        4.15019        1.34289
H          2.69364        2.88354        1.75241
H          0.71287        2.71149       -0.48737
