36
1sa1msa2dma_22.log	Energy: -1025828.9459818
S          2.90704       -0.15651       -0.13171
O          2.03599       -0.37576        1.04646
O          3.33134       -1.36817       -0.82344
O          2.34733        0.88937       -1.02381
O          4.23797        0.49843        0.54276
H          4.95564        0.43328       -0.10155
S         -2.87929       -0.00474       -0.17555
O         -2.98700       -1.41061       -0.59819
O         -2.79870        1.00287       -1.24148
O         -1.71646        0.15340        0.79791
C         -4.33155        0.36661        0.79478
H         -5.19755        0.28036        0.13782
H         -4.39576       -0.35261        1.61122
H         -4.24221        1.38296        1.17866
N          0.13461        2.05844        0.10278
C          0.66811        2.59079        1.37550
C         -0.44737        3.08021       -0.79382
H          0.92130        1.57483       -0.38771
H         -0.14695        3.03884        1.94591
H          1.11441        1.76258        1.92612
H          1.43108        3.33949        1.15687
H         -1.23372        3.61680       -0.26109
H          0.33832        3.77091       -1.10384
H         -0.88924        2.57716       -1.65270
H         -0.59086        1.33567        0.32273
N         -0.06784       -1.99729        0.33379
C          0.07398       -2.09332       -1.13993
C         -0.49250       -3.25599        0.97591
H          0.82105       -1.63526        0.72980
H         -0.89191       -2.37248       -1.56013
H          0.37245       -1.11738       -1.52453
H          0.85169       -2.81924       -1.37723
H         -1.46920       -3.53172        0.57636
H          0.24129       -4.03520        0.76488
H         -0.56534       -3.09670        2.05190
H         -0.76356       -1.24653        0.55010
