33
1sa1msa1ma1dma_84.log	Energy: -1001153.2514863
S         -1.71886       -1.60038       -0.15282
O         -1.50637       -0.85678       -1.39907
O         -2.22196       -2.95670       -0.25880
O         -0.57360       -1.44095        0.79802
O         -2.91166       -0.72927        0.58817
H         -3.41100       -1.34180        1.14383
S          2.51006       -0.24881        0.00798
O          2.61586        0.48103        1.26864
O          1.83073        0.43625       -1.08998
O          1.88854       -1.67433        0.23309
H          0.88420       -1.62395        0.42568
C          4.13389       -0.73768       -0.51794
H          4.59197       -1.32183        0.27959
H          4.03802       -1.32109       -1.43297
H          4.69524        0.17968       -0.69722
N         -0.25339        1.46174        1.61189
H         -0.47110        0.46467        1.65776
C         -1.03463        2.21172        2.59695
H         -0.82537        1.92087        3.63342
H         -0.82939        3.28119        2.49421
H         -2.09958        2.05197        2.40742
H          0.74679        1.52606        1.79304
N         -0.90190        1.82067       -1.02596
C         -0.06782        2.75562       -1.80277
C         -2.33644        2.17205       -0.99478
H         -0.82160        0.84980       -1.37660
H         -0.14914        3.75132       -1.36175
H          0.96281        2.40743       -1.76360
H         -0.41638        2.78529       -2.83713
H         -2.45179        3.15797       -0.53933
H         -2.73569        2.18375       -2.01045
H         -2.86409        1.42011       -0.40762
H         -0.55840        1.75441       -0.00160
