36
1sa1msa1ma1tma_108.log	Energy: -1025808.2650204
S         -0.40042       -1.59760       -0.67663
O          0.96864       -1.97929       -1.07383
O         -0.57574       -1.26182        0.73655
O         -1.01124       -0.60941       -1.59607
O         -1.27311       -2.95816       -0.85389
H         -1.04004       -3.35688       -1.70344
S          2.94245        0.44279        0.46717
O          1.76899        1.24057        0.10512
O          4.20727        1.11051        0.68675
O          3.18764       -0.65356       -0.64935
H          2.33214       -1.11838       -0.87994
C          2.51100       -0.52242        1.89976
H          1.56730       -1.03560        1.70056
H          3.32251       -1.22354        2.09391
H          2.40088        0.17669        2.73001
N         -3.53260       -0.41730        1.02950
H         -4.08300       -1.01591        0.42186
C         -4.12610       -0.37297        2.36534
H         -4.23046       -1.35391        2.84972
H         -3.50679        0.25390        3.01472
H         -5.11638        0.08935        2.31374
H         -2.60421       -0.83698        1.06839
N         -1.46598        1.88657       -0.68960
C         -0.53731        2.67743       -1.53664
H          0.48607        2.41317       -1.26972
H         -0.72621        2.43025       -2.58177
H         -0.71901        3.74048       -1.36254
C         -2.88875        2.12736       -1.03524
H         -3.03633        1.89286       -2.09019
H         -3.49456        1.46711       -0.40890
H         -3.12410        3.17802       -0.84855
C         -1.21508        2.10024        0.75992
H         -1.91535        1.47653        1.31414
H         -0.18636        1.81157        0.97291
H         -1.37698        3.15698        0.98676
H         -1.27377        0.87782       -0.91072
