23
1sa1msa1ma_18.log	Energy: -916335.7773696
S          2.07068       -0.40487        0.03531
O          1.30838       -1.67954        0.14219
O          1.58690        0.40929       -1.10768
O          2.20096        0.36089        1.26731
O          3.57656       -0.87165       -0.31694
H          3.53322       -1.54481       -1.00985
S         -1.98556       -0.46941       -0.02915
O         -2.07470        0.39861       -1.19609
O         -1.49737        0.17952        1.20064
O         -1.16254       -1.76211       -0.31908
H         -0.14343       -1.67951       -0.13387
C         -3.57280       -1.19252        0.29267
H         -4.26379       -0.37408        0.49580
H         -3.87856       -1.74376       -0.59637
H         -3.48346       -1.85289        1.15450
N          0.20424        2.23431        0.33808
H          0.71779        1.65609       -0.37462
H         -0.40780        1.55597        0.83252
C         -0.58548        3.32148       -0.27745
H         -1.09577        3.88946        0.50038
H          0.07780        3.97444       -0.84397
H         -1.31553        2.86215       -0.94388
H          0.91196        2.55141        1.00018
