41
1sa1msa1tma1eda_112.log	Energy: -1085208.9092658
S          0.77763       -0.25310        0.49333
O          0.36581       -1.54917       -0.10969
O          1.31315        0.68742       -0.51278
O         -0.29277        0.35219        1.32117
O          1.94458       -0.58733        1.50319
H          2.68594       -1.05944        0.96137
S         -3.13894       -1.29846       -0.28869
O         -4.39369       -1.85990       -0.74445
O         -2.92355        0.14339       -0.44174
O         -1.98563       -2.08684       -1.02426
H         -1.06606       -1.81216       -0.70449
C         -2.88040       -1.69592        1.42702
H         -3.69513       -1.23234        1.98495
H         -2.91035       -2.78007        1.53363
H         -1.91739       -1.27937        1.72947
H          4.56648       -0.00968       -1.89765
H          6.07286        0.35236       -1.07416
H          5.64590       -1.98720       -0.85485
H          5.50424       -1.24032        0.74395
H          3.16035       -1.84811       -0.92917
H          3.70071       -2.79943        0.27684
H          3.34220        1.04132       -0.23020
H          4.63790        1.18795        0.77665
C          5.02560        0.07300       -0.90442
C          5.03233       -1.31019       -0.24304
N          4.35314        1.14538       -0.19580
N          3.67260       -1.83734       -0.04851
N         -1.19846        2.55330       -0.02848
C         -2.50880        3.03899        0.46842
H         -3.27709        2.33672        0.14844
H         -2.47485        3.08067        1.55776
H         -2.69409        4.03550        0.06130
C         -0.07427        3.40168        0.44443
H         -0.08232        3.41646        1.53446
H          0.85593        2.95555        0.09270
H         -0.20102        4.41137        0.04774
C         -1.18256        2.41054       -1.50959
H         -0.22465        1.97264       -1.78968
H         -1.99274        1.74168       -1.79536
H         -1.30986        3.39922       -1.95685
H         -1.03167        1.60560        0.39001
