38
1sa1msa1dma1eda_272.log	Energy: -1060544.4053287
S          0.51862        1.96282       -0.07952
O          0.93825        0.85474        0.78978
O          1.58787        2.78420       -0.62935
O         -0.45873        1.51117       -1.11748
O         -0.34167        2.91901        0.92437
H         -0.35571        3.80413        0.53609
S         -3.00966       -0.43150        0.02996
O         -2.00239       -0.55975        1.08372
O         -3.07285       -1.52426       -0.93757
O         -2.86422        0.95067       -0.69213
H         -1.86950        1.20214       -0.83976
C         -4.61107       -0.21982        0.76628
H         -4.55754        0.60693        1.47370
H         -5.32950       -0.01619       -0.02741
H         -4.85313       -1.15349        1.27469
N          0.45132       -1.78398        0.02363
C          0.33035       -1.66353       -1.44664
C         -0.20355       -2.98965        0.56889
H          1.48154       -1.81760        0.27996
H         -0.72545       -1.68392       -1.72138
H          0.76786       -0.71575       -1.75773
H          0.85746       -2.50012       -1.91013
H         -1.25415       -2.99054        0.27959
H          0.30121       -3.87277        0.17123
H         -0.12272       -2.97091        1.65568
H          0.06787       -0.93340        0.46485
H          5.13451       -1.74342       -0.12730
H          3.86069       -2.03213       -1.33053
H          4.60799        0.37456       -1.19068
H          2.88389        0.16802       -0.91775
H          4.68877        1.30896        0.85134
H          3.09526        1.01081        1.08906
H          3.43247       -3.01704        0.91134
H          3.34468       -1.48466        1.48848
C          4.08293       -1.54329       -0.37510
C          3.87208       -0.03219       -0.48906
N          3.17942       -2.06548        0.66302
N          3.98153        0.58660        0.83089
