32
1sa1msa1a1eda_17.log	Energy: -1011239.6265364
S         -2.14283       -1.32528        0.12746
O         -1.61806       -2.53557        0.79777
O         -2.22721       -0.15375        1.02430
O         -1.48927       -1.03336       -1.15377
O         -3.67241       -1.67991       -0.29163
H         -4.14575       -1.95776        0.50438
S          2.77906       -0.01352        0.16652
O          2.91798       -1.38889        0.72463
O          2.45818        1.02905        1.15067
O          1.80746       -0.01643       -0.98272
C          4.37069        0.38501       -0.53329
H          5.10223        0.37781        0.27501
H          4.61891       -0.36578       -1.28331
H          4.30648        1.37555       -0.98383
N          0.84990       -2.69906       -0.42302
H          1.06958       -3.55414       -0.92464
H          0.63844       -1.94031       -1.08361
H         -0.00483       -2.82209        0.16199
H          1.67258       -2.35942        0.13902
H         -0.46154        2.79987       -1.67350
H         -1.63613        1.46490       -1.57777
H         -2.73549        3.64218       -1.00816
H         -2.72534        2.53429        0.36841
H         -1.01098        4.88631        0.05532
H         -1.88254        4.40859        1.35644
H          0.47628        0.95528       -0.46054
H          0.19415        2.21958        0.60385
C         -1.11590        2.23413       -1.00443
C         -2.08621        3.15119       -0.27100
N         -0.26240        1.54277       -0.01337
N         -1.33307        4.07670        0.57377
H         -0.86161        0.92183        0.56389
