30
1sa1msa1a1dma_102.log	Energy: -976487.2254058
S          1.85078       -0.23036        0.21587
O          0.77329       -0.02339        1.20261
O          1.76563       -1.48870       -0.54019
O          1.97761        0.96426       -0.68136
O          3.19206       -0.28440        1.07782
H          0.69571        1.84814       -0.41696
H          3.90689       -0.71313        0.51308
S         -2.74461       -0.90711       -0.17129
O         -2.25490        0.40199       -0.58342
O         -3.77336       -1.56012       -0.96085
O         -3.34687       -0.70303        1.32441
H         -4.21140       -1.13718        1.35806
C         -1.38110       -1.98935        0.13154
H         -0.84454       -2.11195       -0.81099
H         -0.71598       -1.50841        0.85408
H         -1.78234       -2.93804        0.48762
N          4.77947       -1.59960       -0.67463
H          5.40652       -2.33908       -0.37882
H          5.24610       -1.04482       -1.38375
H          3.94783       -2.01756       -1.08967
N         -0.22650        2.32920       -0.17709
C         -0.64130        3.20758       -1.28634
C         -0.08390        3.00202        1.13045
H         -0.89933        1.55353       -0.09417
H          0.10922        3.98784       -1.42233
H         -0.71786        2.60931       -2.19399
H         -1.61012        3.65622       -1.06051
H          0.67451        3.78179        1.04520
H         -1.03964        3.44075        1.42346
H          0.23500        2.25043        1.85242
