28
1sa1msa1eda_120.log	Energy: -975727.3585271
S          0.71205        1.37268       -0.12094
O          1.85328        2.18229        0.26115
O         -0.60381        2.04328       -0.07596
O          0.89361        0.61795       -1.39959
O          0.66617        0.20505        1.01599
H          1.74358       -0.64233       -1.23892
H         -0.17318       -0.30272        0.90535
S         -2.92350       -0.46694        0.20279
O         -3.67795       -0.22210        1.41496
O         -1.60259       -1.10787        0.34203
O         -2.77262        0.83430       -0.66575
H         -1.90677        1.33651       -0.45511
C         -3.89758       -1.45395       -0.90611
H         -4.07012       -2.40998       -0.41116
H         -4.84088       -0.93560       -1.07735
H         -3.34606       -1.58501       -1.83616
H          4.43369       -1.95109       -0.99214
H          4.04889       -0.34690       -1.67767
H          4.97416       -0.31308        0.73701
H          3.44490        0.53528        0.50462
H          3.87096       -1.78083        2.10829
H          2.52704       -0.82426        1.98212
H          2.25749       -2.17027       -1.81844
H          2.12465       -1.91527       -0.15962
C          3.79832       -1.06665       -0.89681
C          3.91382       -0.45271        0.50662
N          2.38533       -1.49524       -1.06937
N          3.23734       -1.32899        1.46291
