20
1sa1msa1a_05.log	Energy: -891675.7813853
S          1.90393       -0.32267       -0.02038
O          2.25312        0.72013       -1.01435
O          1.45229        0.23704        1.25722
O          1.01179       -1.36301       -0.57945
O          3.27278       -1.09498        0.34606
H          3.54618       -1.61740       -0.42096
S         -2.21233       -0.09484       -0.06756
O         -3.63566       -0.19551       -0.28612
O         -1.61580        1.25218       -0.11510
O         -1.50387       -1.01939       -1.12860
H         -0.51270       -1.10400       -0.96979
C         -1.76700       -0.81842        1.49522
H         -2.29047       -0.24995        2.26509
H         -2.10019       -1.85617        1.49022
H         -0.68468       -0.74097        1.62319
N          0.69884        2.63976        0.05320
H          1.37051        2.10532       -0.55308
H          1.02349        2.49147        1.01010
H          0.64520        3.62566       -0.18433
H         -0.22999        2.16676       -0.03436
