30
1sa1msa1a1dma_122.log	Energy: -976476.9496872
S          1.84571       -0.81308        0.42623
O          0.78426       -0.73679        1.42478
O          3.10446       -1.42997        0.77051
O          1.30182       -1.58121       -0.84111
O          2.08171        0.64917       -0.07733
H          0.36292       -1.30110       -1.03234
H          3.02597        0.71866       -0.51969
S         -2.33344       -0.95013       -0.28042
O         -3.11945       -2.12542       -0.57960
O         -1.14887       -0.66590       -1.11371
O         -1.85903       -1.01181        1.23473
H         -0.87476       -0.90143        1.31361
C         -3.36205        0.48923       -0.28786
H         -3.77965        0.57015       -1.29266
H         -4.15608        0.32415        0.44128
H         -2.75160        1.36881       -0.03647
N          4.48780        0.66653       -1.06715
H          5.05941        1.46874       -0.82211
H          4.55331        0.52443       -2.07025
H          4.87563       -0.15389       -0.60593
N         -1.29185        2.96937        0.21615
C         -0.54933        2.83418       -1.03093
C         -0.49870        2.60790        1.38471
H         -1.62451        3.92252        0.31345
H         -0.31538        1.77857       -1.19574
H         -1.16690        3.17991       -1.86500
H          0.39995        3.39582       -1.03671
H         -0.22329        1.55187        1.32650
H          0.43754        3.18383        1.47181
H         -1.08928        2.75661        2.29263
