35
1sa1msa1ma1eda_65.log	Energy: -1035897.7869489
S         -1.08384        1.81032       -0.33113
O         -0.49214        3.12206       -0.54965
O         -0.59214        0.80881       -1.49107
O         -0.64509        1.18102        0.95235
O         -2.55788        1.72853       -0.48630
H          0.87622        1.48982        1.41165
H         -2.97410        0.20710       -0.68215
S          2.05047       -1.31437       -0.22288
O          0.87546       -2.19585       -0.19413
O          2.61039       -0.98619        1.12191
O          1.83511       -0.06251       -1.01920
H          0.34659        0.50006       -1.32866
C          3.34882       -2.19458       -1.07537
H          2.99759       -2.42355       -2.08174
H          4.23229       -1.55712       -1.11077
H          3.55516       -3.11074       -0.52151
N          1.90511        1.58206        1.64073
H          1.99761        1.87808        2.60904
C          2.55426        2.52945        0.70258
H          3.59874        2.66494        0.98521
H          2.49008        2.09003       -0.29178
H          2.01802        3.47735        0.71779
H          2.28938        0.60884        1.53028
H         -2.49969       -2.75764       -0.88777
H         -1.26830       -1.46624       -0.95984
H         -1.32420       -2.56657        1.28852
H         -1.68501       -0.84462        1.35490
H         -3.59931       -3.02101        1.72754
H         -3.48441       -1.59472        2.51598
H         -3.60435       -0.89588       -1.78859
H         -4.04892       -1.00431       -0.16953
C         -2.19963       -1.78207       -0.49416
C         -2.07066       -1.81268        1.02315
N         -3.28164       -0.80797       -0.82835
N         -3.40145       -2.03362        1.60720
