41
1sa1msa1tma1eda_73.log	Energy: -1085216.8015716
S          1.83173        1.80692       -0.45888
O          1.38234        1.08788        0.76511
O          2.79404        1.04192       -1.25524
O          0.72265        2.40765       -1.21125
O          2.66288        3.05255        0.19737
H          2.99926        3.59670       -0.52746
S         -1.63434       -1.96597       -0.23110
O         -2.67836       -1.02811        0.29344
O         -1.39940       -3.14141        0.62036
O         -0.38939       -1.21806       -0.56239
C         -2.28596       -2.57355       -1.78060
H         -1.56299       -3.27156       -2.20405
H         -3.22912       -3.08065       -1.57548
H         -2.44086       -1.72734       -2.45038
H         -2.24374        2.35905        1.98774
H         -1.48948        3.40989        0.76691
H         -3.91132        3.61305        0.56211
H         -3.30363        2.78510       -0.85772
H         -4.09866        0.69843        0.10711
H         -4.67795        1.50867        1.40919
H         -0.46008        1.20336        0.84409
H         -1.91395        0.46695        0.41019
C         -2.11064        2.52252        0.91482
C         -3.46833        2.67162        0.22080
N         -1.36777        1.36181        0.37501
N         -4.42671        1.60388        0.43179
H         -1.07480        1.52982       -0.59428
N          2.27183       -1.59769        0.55686
C          3.54013       -1.01830        1.07048
H          3.90715       -0.29709        0.34101
H          3.33537       -0.50975        2.01184
H          4.25782       -1.82799        1.21917
C          1.68557       -2.57050        1.51560
H          1.54376       -2.06822        2.47324
H          0.72129       -2.91688        1.13850
H          2.38341       -3.40268        1.63256
C          2.45768       -2.19019       -0.79429
H          1.49624       -2.57574       -1.12658
H          2.78838       -1.39625       -1.46428
H          3.20432       -2.98446       -0.72506
H          1.60089       -0.81277        0.45573
