32
1sa1msa1a1eda_14.log	Energy: -1011240.7764035
S         -2.43461       -1.07051       -0.05244
O         -3.24868        0.02288        0.48043
O         -1.33772       -0.60619       -0.94175
O         -1.95855       -2.06317        0.92692
O         -3.41958       -1.95798       -0.99314
H         -3.94963       -1.35399       -1.52979
S          2.98342       -0.11165       -0.10504
O          2.72498        1.14075       -0.86245
O          2.91073       -1.34586       -0.91036
O          2.09552       -0.19553        1.10542
C          4.65170        0.02595        0.50777
H          5.31815        0.10965       -0.35102
H          4.71500        0.91622        1.13333
H          4.88041       -0.87050        1.08434
N          0.70924       -2.45756        0.56666
H         -0.32999       -2.38548        0.69329
H          0.96630       -2.42936       -0.42315
H          1.19032       -1.61676        0.97687
H          1.07170       -3.31016        0.98328
H          0.01907        3.75324       -0.35635
H         -0.60977        2.92767       -1.79982
H         -2.43481        3.91212       -0.28375
H         -2.60329        2.18367       -0.60702
H         -2.14364        3.37526        1.92397
H         -2.51745        1.81044        1.53289
H          1.09894        1.59654       -0.56095
H          0.04652        1.63622        0.75337
C         -0.58066        2.91005       -0.70848
C         -1.98589        2.93011       -0.09885
N          0.09764        1.67121       -0.27148
N         -1.91187        2.59776        1.32100
H         -0.40833        0.82395       -0.60620
