39
1sa1msa1dma1tma_130.log	Energy: -1050460.4639487
S          0.81241        0.17984       -0.28309
O         -0.30986        0.29095       -1.23748
O          1.78672        1.26706       -0.35859
O          0.19443        0.30125        1.18596
O          1.46862       -1.16345       -0.35274
H         -0.62296       -0.25149        1.24890
H          2.97916       -0.96805       -0.10151
S         -3.12110       -1.20456        0.15756
O         -4.21588       -0.29479        0.42133
O         -2.00951       -1.25277        1.12034
O         -2.53341       -0.98722       -1.28967
H         -1.65257       -0.48447       -1.27207
C         -3.76625       -2.85016       -0.01580
H         -4.22961       -3.11020        0.93632
H         -4.50939       -2.83859       -0.81289
H         -2.94415       -3.52503       -0.25065
N         -1.13524        3.36381       -0.49988
C         -2.33719        2.65594       -0.09512
C         -0.40107        3.90354        0.63117
H         -0.53709        2.72771       -1.01596
H         -3.06133        3.36532        0.32196
H         -2.80035        2.18051       -0.96318
H         -2.15721        1.87968        0.66963
H         -0.99926        4.68552        1.11432
H         -0.14949        3.14573        1.39382
H          0.52926        4.35925        0.28101
N          4.02760       -0.81670        0.08100
C          4.12944       -0.03021        1.33639
H          3.59925        0.91079        1.18915
H          3.65127       -0.59078        2.14036
H          5.18303        0.14275        1.56878
C          4.64139       -2.15662        0.21123
H          4.16552       -2.68315        1.03899
H          4.47635       -2.71103       -0.71300
H          5.71255       -2.05189        0.39914
C          4.56210       -0.06317       -1.08007
H          4.41077       -0.65660       -1.98234
H          4.00195        0.86830       -1.16235
H          5.62733        0.12709       -0.92784
