40
1sa1msa2eda_308.log	Energy: -1095265.8066946
S          1.18955       -0.20323       -0.94366
O         -0.05719       -0.39498       -1.70134
O          1.53919        1.18204       -0.61423
O          1.00956       -0.97315        0.46049
O          2.34448       -0.91251       -1.56958
H          0.05676       -1.16675        0.63923
H          3.67393       -0.32004       -1.18389
S         -2.79864       -1.30287        0.34047
O         -3.66417       -0.47214        1.15916
O         -1.52644       -1.76706        0.90603
O         -2.55162       -0.63514       -1.06320
H         -1.57660       -0.42483       -1.21865
C         -3.72702       -2.73964       -0.14453
H         -3.99297       -3.27282        0.76863
H         -4.62191       -2.40359       -0.66809
H         -3.10033       -3.35472       -0.78952
H          5.45043        1.51887        0.42331
H          3.70623        1.72053        0.03731
H          4.08249        0.82839        2.37712
H          3.12587       -0.24802        1.35990
H          5.87517       -0.68069        2.21993
H          4.65523       -1.75551        2.02847
H          5.09846        0.49452       -1.66988
H          5.19737       -0.72508       -0.51878
C          4.49438        1.00711        0.27860
C          4.12608        0.17009        1.50192
N          4.64179        0.06796       -0.86783
N          5.08676       -0.92907        1.63333
H         -1.20519        3.59660        0.80230
H         -0.56623        2.75435       -0.62821
H         -2.82111        3.72927       -0.97481
H         -2.77976        1.97601       -1.24049
H         -4.64797        2.94096        0.17809
H         -3.85554        1.67815        0.83322
H         -0.15935        1.39476        1.19019
H         -1.70881        1.43902        1.71915
C         -1.32547        2.71027        0.15878
C         -2.70986        2.76113       -0.47316
N         -1.12584        1.45533        0.88685
N         -3.75126        2.64978        0.55024
