40
1sa1msa2eda_112.log	Energy: -1095295.5865432
S          3.14299       -0.11032       -0.41262
O          2.96489       -1.57119       -0.21645
O          2.42281        0.36334       -1.61776
O          2.89676        0.70200        0.77643
O          4.72553        0.09169       -0.70627
H          4.97426       -0.49411       -1.43404
S         -2.78350       -0.80713       -0.41494
O         -3.11093        0.02627        0.76199
O         -2.73520       -2.25801       -0.14441
O         -1.51841       -0.34458       -1.08849
C         -4.08045       -0.53799       -1.61262
H         -5.01529       -0.88928       -1.17500
H         -4.13850        0.52939       -1.82825
H         -3.84047       -1.10274       -2.51354
H         -1.03215       -2.62828        1.44240
H          0.60275       -3.31647        1.63017
H          0.30113       -1.55388        3.24957
H          1.54344       -1.07155        2.08105
H         -1.25020       -0.11919        1.92721
H          0.05580        0.72682        2.46555
H         -0.00287       -2.98545       -0.65183
H         -0.29578       -1.38449       -0.46319
C          0.03711       -2.42712        1.34372
C          0.47180       -1.25227        2.20628
N          0.29057       -2.17863       -0.10374
N         -0.23664       -0.02329        1.84611
H          1.30595       -1.98702       -0.26944
H         -0.21679        3.42842       -1.40143
H         -1.21941        1.96656       -1.62381
H         -2.39650        3.67634       -0.22153
H         -2.13040        2.14605        0.61946
H         -0.63067        4.62983        1.06839
H         -1.37443        3.66793        2.15761
H          1.03523        1.33478       -1.02412
H          0.95964        2.28383        0.33328
C         -0.68612        2.57836       -0.89655
C         -1.62362        3.02914        0.21610
N          0.39060        1.74437       -0.32234
N         -0.85521        3.66489        1.28787
H          0.01211        0.95343        0.25528
