35
1sa1msa1ma1eda_82.log	Energy: -1035888.3575084
S         -1.93729       -1.57644       -0.25097
O         -1.56711       -2.31596        0.96892
O         -3.08025       -0.67907       -0.11070
O         -0.74606       -0.94863       -0.88971
O         -2.34123       -2.69482       -1.36007
H         -3.20124       -3.06148       -1.11333
S         -0.67994        2.40085        0.06758
O         -0.11104        3.71037       -0.16637
O         -0.15206        1.60482        1.18630
O         -0.52591        1.57605       -1.27044
H         -0.68916        0.58415       -1.13438
C         -2.43893        2.52355        0.27887
H         -2.61215        3.06578        1.20913
H         -2.83744        3.07524       -0.57251
H         -2.85129        1.51223        0.32316
N          0.81041       -0.99046        1.64959
H          1.42541       -1.24116        0.80853
H          0.45586       -0.03447        1.47894
C          1.53406       -1.08214        2.92843
H          0.86561       -0.82592        3.75061
H          1.90716       -2.09783        3.06257
H          2.37385       -0.38640        2.91704
H         -0.01878       -1.60982        1.60350
H          2.83701       -0.35273       -2.34852
H          1.70349        0.42549       -1.24455
H          3.92373        1.39560       -0.96005
H          3.45224        0.53656        0.50900
H          5.33085       -0.47696       -1.49900
H          5.60656       -0.20422        0.08591
H          1.46148       -1.96159       -1.19050
H          3.03389       -2.12810       -0.67990
C          2.57101       -0.23802       -1.28709
C          3.73535        0.39712       -0.54066
N          2.21760       -1.52177       -0.67122
N          4.89897       -0.49207       -0.58010
