40
1sa1msa2eda_86.log	Energy: -1095294.6591031
S          3.02032       -0.23611        0.08976
O          2.76984       -0.89538       -1.21499
O          3.20505        1.22617       -0.03885
O          2.06432       -0.63281        1.12380
O          4.44302       -0.81448        0.62086
H          5.13302       -0.52287        0.00975
S         -2.48992        0.17719        0.16035
O         -2.79672       -0.76919       -0.92882
O         -2.65597        1.60587       -0.16479
O         -1.12238       -0.10074        0.74040
C         -3.62854       -0.17457        1.49100
H         -4.63822        0.01034        1.12322
H         -3.51083       -1.21911        1.78097
H         -3.39597        0.48446        2.32756
H          0.80347       -3.97315       -0.54887
H          0.84984       -2.96695        0.92722
H         -1.12856       -4.61159        0.80336
H         -1.58372       -2.92506        1.05055
H         -2.47310       -4.51546       -1.00771
H         -2.53898       -2.86260       -0.99973
H          1.19162       -1.65987       -1.08796
H         -0.35289       -2.15661       -1.61798
C          0.28230       -3.20414        0.02569
C         -1.15548       -3.62836        0.32514
N          0.24069       -1.97568       -0.80319
N         -1.92639       -3.67083       -0.91541
H         -0.20431       -1.21254       -0.24842
H         -1.00506        2.89487        1.23402
H          0.60384        3.56171        1.61590
H         -0.93318        5.06141        0.18425
H          0.66754        4.76817       -0.51408
H         -1.73335        3.23783       -1.28087
H         -0.85020        4.27165       -2.23760
H          0.13266        1.14854        0.54038
H          0.27013        2.08918       -0.82896
C         -0.04925        3.21342        0.81520
C         -0.28217        4.29065       -0.24988
N          0.55215        2.02175        0.16523
N         -0.81444        3.64626       -1.44362
H          1.58737        1.95243        0.20854
