27
1sa1msa1a1ma_51.log	Energy: -951832.1979096
S         -1.81959       -1.07189        0.01231
O         -1.33560       -1.02991        1.39719
O         -3.09332       -0.40093       -0.25327
O         -0.77079       -0.64735       -0.96315
O         -2.06446       -2.65251       -0.24555
H         -2.63604       -2.74078       -1.02039
S          2.48843       -0.07011        0.01894
O          2.63151       -0.63865        1.34813
O          1.90028        1.28031       -0.04878
O          1.71581       -1.02966       -0.94770
H          0.69126       -0.91556       -0.89898
C          4.06581       -0.03784       -0.79275
H          4.72060        0.58798       -0.18585
H          4.44451       -1.05870       -0.83981
H          3.93524        0.38239       -1.78917
N         -0.29194        1.52127        1.70526
H          0.58173        1.53471        1.14898
H         -1.07291        2.01521        1.14347
H         -0.58798        0.52925        1.80675
H         -0.14177        1.94586        2.61509
N         -2.24305        2.48336        0.02693
H         -2.85642        1.66793       -0.03822
C         -1.56064        2.67344       -1.26392
H         -2.25255        2.89254       -2.08474
H         -0.84003        3.49181       -1.18241
H         -1.01742        1.75682       -1.50404
H         -2.82333        3.28610        0.24902
