32
1sa1msa1a1eda_184.log	Energy: -1011228.3863483
S          2.61102       -0.13791       -0.08863
O          2.81331       -0.59171        1.29000
O          2.28400       -1.17241       -1.07339
O          1.68365        1.03362       -0.16107
O          4.03631        0.42899       -0.60908
H          4.42836        0.94678        0.10705
S         -1.54537        1.83339       -0.00541
O         -2.77908        2.13387        0.68856
O         -1.57957        0.86030       -1.10638
O         -0.49144        1.36117        1.07221
H          0.42172        1.18598        0.63725
C         -0.81936        3.32279       -0.65168
H         -1.48097        3.68999       -1.43682
H         -0.74298        4.04503        0.16087
H          0.16299        3.07094       -1.05500
N          0.07459       -1.61808        2.10390
H         -0.08706       -2.34514        2.79203
H         -0.48049       -0.80675        2.36528
H          1.05955       -1.34856        2.14490
H         -1.73318       -2.27817       -2.16322
H         -0.85150       -3.60574       -1.39318
H         -3.29483       -3.51240       -0.77455
H         -2.19018       -3.49621        0.60530
H         -3.40181       -1.02503       -0.44542
H         -3.75254       -1.76641        0.97837
H          0.50460       -1.69047       -1.06778
H         -0.81797       -0.73280       -0.75958
C         -1.38083       -2.66961       -1.20464
C         -2.54602       -2.90323       -0.24452
N         -0.43407       -1.68466       -0.63780
N         -3.03529       -1.63763        0.27620
H         -0.29081       -1.80633        0.41115
