28
1sa1msa1eda_176.log	Energy: -975707.4293786
S         -2.37975       -0.19715        0.12729
O         -1.41508       -0.31848        1.20485
O         -2.92919        1.07968       -0.25405
O         -1.86010       -0.94574       -1.14888
O         -3.59950       -1.13817        0.57075
H         -0.90163       -1.21963       -1.05309
H         -4.40915       -0.81666        0.14842
S          1.75554       -1.26258       -0.13973
O          2.66650       -0.37899       -0.84035
O          0.60181       -1.80800       -0.86958
O          1.24954       -0.59139        1.20236
H          0.30101       -0.30937        1.12191
C          2.67540       -2.62613        0.52285
H          3.11691       -3.15114       -0.32465
H          3.45228       -2.22446        1.17335
H          1.99194       -3.27085        1.07383
H          0.20120        3.62225       -0.99582
H         -0.92253        2.85864        0.14977
H          1.06307        3.80221        1.25182
H          0.93025        2.05883        1.51807
H          3.18184        3.01687        0.82439
H          2.68247        1.74860       -0.07220
H         -0.63833        1.46661       -1.72785
H          0.97416        1.40997       -1.54873
C          0.06247        2.76622       -0.31907
C          1.13708        2.82780        0.75737
N          0.10099        1.48237       -1.03113
N          2.47078        2.71267        0.17000
