20
1sa1msa1a_32.log	Energy: -891659.5625622
S          2.12946       -0.30996        0.12059
O          3.42981       -0.79290        0.48695
O          1.22686        0.25871        1.10742
O          2.29436        0.87884       -0.95835
O          1.40613       -1.43292       -0.69058
H          3.02997        0.67118       -1.55339
H          0.44210       -1.18572       -0.86300
S         -2.09862       -0.44655       -0.05868
O         -3.09749       -1.48331        0.02687
O         -1.00375       -0.58754       -1.03959
O         -1.43936       -0.29171        1.38290
H         -0.49754       -0.00767        1.31520
C         -2.85170        1.13057       -0.33440
H         -3.29779        1.09970       -1.32937
H         -3.61930        1.26234        0.42869
H         -2.06149        1.88837       -0.25917
N         -0.09419        2.87447        0.06715
H          0.53801        2.51957       -0.64430
H          0.34584        2.67491        0.96023
H         -0.13605        3.88331       -0.03388
