40
1sa1msa2eda_258.log	Energy: -1095275.8723167
S          0.25393       -1.65381        0.35529
O         -0.42758       -0.59648        1.14819
O          1.15492       -2.51475        1.11180
O         -0.88169       -2.60292       -0.21570
O          0.94836       -1.03442       -0.82197
H         -1.61510       -2.05614       -0.59770
H          2.47589       -1.50084       -0.62421
S         -3.54870        0.02563       -0.22244
O         -4.98354       -0.12059       -0.12380
O         -2.79284       -0.91698       -1.06174
O         -2.96053       -0.02428        1.24734
H         -1.98771       -0.27241        1.23822
C         -3.14897        1.66610       -0.76841
H         -3.57351        1.77831       -1.76737
H         -3.61680        2.36649       -0.07583
H         -2.05766        1.78075       -0.79422
H          2.02810        2.97001       -0.75244
H          0.59036        3.97961       -0.96561
H          1.24858        3.93180        1.35677
H         -0.33810        3.16668        1.15854
H          1.32512        1.98385        2.59819
H          0.70405        1.04892        1.43248
H          0.23147        2.01108       -2.19286
H          0.50546        1.02558       -0.92392
C          0.94356        3.02690       -0.55499
C          0.73668        3.05121        0.95344
N          0.17611        1.95522       -1.18181
N          1.30564        1.85909        1.59071
H          2.97543        0.91787       -1.12237
H          4.66964        1.40278       -1.23827
H          4.16486       -0.91508       -2.22101
H          5.39910       -0.94789       -0.93317
H          3.73928       -2.60818       -0.38113
H          3.55377       -1.27174        0.62060
H          4.80221        1.25654        1.07119
H          3.13045        1.25576        1.05899
C          3.98248        0.70394       -0.74811
C          4.35319       -0.72776       -1.16222
N          3.98045        0.79426        0.70435
N          3.49535       -1.62168       -0.35064
