36
1sa1msa2dma_98.log	Energy: -1025812.9709838
S          2.08600       -1.41508       -0.11276
O          1.96332       -0.92784        1.26716
O          2.58501       -2.76317       -0.30801
O          0.86658       -1.08548       -0.91797
O          3.21780       -0.40318       -0.74717
H          3.62407       -0.85557       -1.49803
S         -2.33082       -0.91520        0.07910
O         -2.69855       -0.01515       -1.01451
O         -1.76568       -0.28687        1.27168
O         -1.40048       -2.06481       -0.43713
H         -0.44928       -1.71608       -0.63483
C         -3.75043       -1.87907        0.53280
H         -4.11539       -2.39130       -0.35691
H         -3.45109       -2.58865        1.30334
H         -4.49780       -1.18163        0.91200
N          0.73799        1.54350        1.27982
C         -0.04812        2.05170        2.41924
C          2.04623        2.20804        1.10655
H          0.92040        0.52681        1.38032
H         -0.22828        3.11973        2.27777
H         -0.99298        1.51148        2.44919
H          0.50489        1.89329        3.34708
H          1.88302        3.27049        0.91228
H          2.64443        2.08063        2.01010
H          2.56431        1.74319        0.26725
H          0.18017        1.68130        0.36552
N         -0.53487        2.09007       -1.09457
C          0.45908        2.00752       -2.16467
C         -1.21031        3.38273       -1.03504
H         -1.23739        1.36270       -1.23240
H          1.24509        2.75108       -1.99075
H          0.90851        1.01225       -2.15290
H          0.02298        2.19796       -3.15598
H         -0.48885        4.16391       -0.76924
H         -1.67669        3.66293       -1.99069
H         -1.98752        3.35137       -0.26715
