27
1sa1msa1a1ma_95.log	Energy: -951832.3898145
S         -1.05677       -1.16798       -0.35041
O          0.19126       -1.95620       -0.40488
O         -2.26677       -1.93259       -0.07438
O         -0.92666       -0.19881        0.95221
O         -1.17911       -0.23262       -1.50137
H         -0.03394        0.22200        0.93415
H         -2.32220        0.87020       -1.14675
S          2.75667        0.24440        0.29412
O          3.52582       -0.23009        1.42620
O          1.49210        0.94834        0.57522
O          2.48768       -0.90102       -0.74816
H          1.56690       -1.32968       -0.63136
C          3.76993        1.31502       -0.69621
H          4.04692        2.16263       -0.06863
H          4.65586        0.75592       -0.99704
H          3.19380        1.63665       -1.56287
N         -3.98724        0.01992        1.35836
H         -3.45790        0.21067        2.20443
H         -3.62371       -0.86733        0.99723
H         -4.95828       -0.11188        1.62159
N         -2.98976        1.57060       -0.71200
H         -3.67814        1.85127       -1.40630
C         -2.22842        2.72397       -0.18532
H         -2.90555        3.41967        0.31142
H         -1.49831        2.34202        0.52720
H         -1.70670        3.22492       -1.00065
H         -3.48176        1.04648        0.08414
