42
1sa1msa2tma_32.log	Energy: -1075130.9480698
S         -0.25841       -2.02475        0.52732
O          0.12438       -0.90721       -0.44564
O         -1.48517       -2.67555        0.08950
O          0.90859       -2.84930        0.81676
O         -0.55638       -1.25765        1.90396
H         -1.29972       -0.63163        1.74555
S         -2.93343        0.75216       -0.31467
O         -3.63541        1.97637       -0.62884
O         -2.39967        0.57806        1.04276
O         -1.74039        0.61116       -1.34854
H         -1.02801       -0.02516       -1.00694
C         -3.95907       -0.65055       -0.68595
H         -4.80703       -0.61397       -0.00079
H         -4.29201       -0.55757       -1.71952
H         -3.36596       -1.55437       -0.52871
N          2.77448       -0.84073       -0.75587
C          3.09472       -2.17147       -1.32916
H          2.71613       -2.93427       -0.64893
H          2.59510       -2.26520       -2.29403
H          4.17644       -2.25496       -1.45728
C          3.15835        0.27258       -1.65655
H          2.64518        0.14613       -2.61072
H          2.84657        1.20193       -1.17356
H          4.24016        0.25205       -1.80938
C          3.34985       -0.66904        0.60270
H          3.06366        0.32084        0.95924
H          2.93206       -1.44243        1.24814
H          4.43729       -0.75639        0.54144
H          1.72300       -0.80677       -0.63864
N          1.70952        2.44755        0.39505
C          0.87079        1.99025        1.49757
H          0.16797        1.23652        1.14098
H          1.49074        1.53789        2.27847
H          0.29389        2.81524        1.95146
C          2.68879        3.41942        0.85412
H          3.31916        2.97561        1.63175
H          3.33318        3.72372        0.02247
H          2.21843        4.32772        1.27338
C          0.88656        3.00299       -0.67282
H          1.52004        3.29840       -1.51673
H          0.16792        2.25611       -1.01894
H          0.31966        3.89217       -0.34439
