39
1sa1msa1dma1tma_76.log	Energy: -1050473.3247364
S          0.02125        1.94649       -0.01333
O          0.04044        0.82581       -1.02437
O          1.27921        2.68310        0.00679
O         -1.22648        2.69808       -0.07413
O         -0.09846        1.16255        1.41617
H          0.70886        0.61513        1.51605
S          2.91940       -0.71043       -0.03106
O          3.75009       -1.88921       -0.14904
O          1.92317       -0.67574        1.05468
O          2.16908       -0.50772       -1.40244
H          1.34799        0.09596       -1.28989
C          3.93079        0.74296        0.10963
H          4.46676        0.66921        1.05670
H          4.62608        0.74737       -0.72965
H          3.27180        1.61510        0.09277
N         -1.01907       -1.63237        0.16868
C         -0.77223       -2.57418       -0.92542
C         -0.88440       -2.24272        1.49246
H         -0.34126       -0.87582        0.08233
H         -1.54451       -3.35067       -0.92683
H         -0.80471       -2.03601       -1.87575
H          0.20879       -3.05654       -0.83562
H         -1.65494       -3.01053        1.62240
H          0.10189       -2.70028        1.63100
H         -1.01635       -1.47207        2.25570
N         -3.29416       -0.30168       -0.12796
C         -3.26003        0.44951       -1.40575
H         -2.49790        1.22592       -1.33701
H         -3.01009       -0.24278       -2.21144
H         -4.24116        0.89726       -1.58905
C         -4.30225       -1.37917       -0.15407
H         -4.08360       -2.05283       -0.98472
H         -4.25484       -1.93528        0.78412
H         -5.30236       -0.95510       -0.27880
C         -3.48544        0.60174        1.03164
H         -3.39767        0.01893        1.95029
H         -2.71681        1.37507        1.00647
H         -4.47748        1.05929        0.97548
H         -2.30131       -0.83380       -0.00161
