27
1sa1msa1a1ma_162.log	Energy: -951822.3563335
S         -2.12730       -0.75484       -0.10455
O         -2.92904        0.40199        0.31756
O         -1.32580       -0.55051       -1.31859
O         -1.33614       -1.31572        1.02504
O         -3.16551       -1.92520       -0.54565
H         -3.79392       -2.05426        0.17717
S          2.63148       -0.35751        0.06067
O          1.99508        0.29947        1.18716
O          4.01355       -0.79287        0.14607
O          2.54640        0.71883       -1.16433
H          3.36441        0.65931       -1.67791
C          1.59670       -1.66733       -0.53069
H          1.45751       -2.36162        0.29898
H          0.63137       -1.25345       -0.83705
H          2.11098       -2.14896       -1.36262
N         -0.51394        1.12712        2.02048
H         -0.74541        0.12718        1.82379
H          0.35031        1.17962        2.55264
H         -0.37104        1.60447        1.03121
H         -1.29370        1.55050        2.51522
N         -0.26804        2.14130       -0.47217
H          0.66081        2.46449       -0.72596
C         -1.29494        3.15470       -0.74712
H         -1.29954        3.48892       -1.79069
H         -2.26958        2.71862       -0.51689
H         -1.13499        4.02590       -0.10507
H         -0.45910        1.30590       -1.03032
