24
1sa1msa2a_05.log	Energy: -927183.1596148
S          2.68402       -0.11107       -0.05573
O          2.41784       -1.37293        0.67029
O          4.05840        0.09382       -0.46434
O          1.63512        0.16523       -1.06456
O          2.34866        1.09376        1.04496
H          3.03786        1.08346        1.72204
S         -2.51392        0.00148        0.08835
O         -2.25773        1.33239        0.71532
O         -2.25881       -1.13723        1.00964
O         -1.77995       -0.14176       -1.19480
C         -4.25736       -0.03177       -0.27553
H         -4.79905        0.08834        0.66273
H         -4.48036        0.78714       -0.95937
H         -4.48943       -0.99260       -0.73493
N          0.06024        2.24436       -0.27715
H         -0.86703        1.93532        0.13689
H         -0.07902        3.00735       -0.93298
H          0.71061        2.51420        0.46141
H          0.51300        1.43206       -0.75500
N         -0.03782       -2.18219       -0.20330
H         -0.07205       -3.13430       -0.55494
H         -0.18687       -1.50985       -0.96798
H         -0.82553       -1.99365        0.45582
H          0.89527       -1.97490        0.22878
