28
1sa1msa1eda_65.log	Energy: -975730.3768038
S          2.50800       -0.55202       -0.14800
O          3.31909       -0.88095       -1.30609
O          2.94546        0.56136        0.69589
O          1.03679       -0.38940       -0.44333
O          2.49582       -1.88900        0.79217
H          3.28644       -2.39878        0.57109
S         -2.13912       -0.95095        0.00941
O         -2.63121        0.00291       -0.98128
O         -1.68679       -0.39546        1.28406
O         -1.02054       -1.87161       -0.60933
H         -0.12178       -1.39544       -0.59125
C         -3.38557       -2.18091        0.29482
H         -4.25388       -1.66362        0.70369
H         -3.62752       -2.64786       -0.65954
H         -2.99588       -2.90965        1.00472
H          0.58818        3.75374        0.69702
H          1.53998        2.62544       -0.30917
H         -0.45984        3.57181       -1.56521
H         -0.53445        1.81866       -1.39693
H         -2.29179        3.72773       -0.16405
H         -2.49658        2.10792       -0.43751
H          0.98961        1.74031        1.92004
H         -0.64544        1.76106        1.45216
C          0.56974        2.80402        0.15661
C         -0.58686        2.75986       -0.84059
N          0.33450        1.71721        1.14105
N         -1.85035        2.81925       -0.11095
H          0.47900        0.80026        0.65999
