42
1sa1msa2tma_12.log	Energy: -1075139.2343324
S          0.45126       -1.40992       -0.78717
O          0.75619       -0.36903       -1.77222
O         -0.16617       -0.76699        0.46611
O         -0.39988       -2.51285       -1.22952
O          1.79904       -2.03972       -0.28677
H          2.46673       -1.27361        0.01095
S         -1.02096        2.52042       -0.01724
O         -1.15771        3.83164        0.58419
O         -2.21124        1.67623       -0.15730
O          0.06429        1.72515        0.81559
H         -0.01306        0.71556        0.64721
C         -0.26598        2.67350       -1.61919
H         -0.98235        3.18067       -2.26664
H          0.63823        3.27212       -1.50585
H         -0.03130        1.66863       -1.97929
N         -2.76660       -1.43503        0.53453
C         -3.34496       -1.23391       -0.82036
H         -3.29621       -0.17061       -1.05300
H         -2.73943       -1.80015       -1.52839
H         -4.37913       -1.58688       -0.81890
C         -2.70308       -2.87344        0.89312
H         -2.09669       -3.38152        0.14321
H         -2.22712       -2.96956        1.86959
H         -3.71673       -3.27976        0.92746
C         -3.46825       -0.63060        1.56407
H         -2.96767       -0.77655        2.52217
H         -3.41326        0.41904        1.27552
H         -4.50620       -0.96490        1.63211
H         -1.76428       -1.09916        0.49372
N          3.46723       -0.23801        0.49748
C          3.17541        0.02083        1.90955
H          2.17440        0.44695        2.00157
H          3.20765       -0.92056        2.46372
H          3.90261        0.72141        2.34760
C          4.78476       -0.85295        0.33167
H          4.82038       -1.79483        0.88495
H          4.95417       -1.06562       -0.72648
H          5.58642       -0.19260        0.69644
C          3.35132        0.98801       -0.29878
H          3.46761        0.74598       -1.35707
H          2.36019        1.42062       -0.15216
H          4.11432        1.72443       -0.00294
