41
1sa1msa1tma1eda_185.log	Energy: -1085204.5091820
S          0.37197       -1.97810       -0.31428
O         -0.51524       -3.12814       -0.33903
O          1.81050       -2.26152       -0.48812
O         -0.07322       -0.86557       -1.20875
O          0.20995       -1.38513        1.19103
H         -1.74340       -0.67117       -1.17983
H          0.86510       -0.65638        1.30128
S          3.16537        0.79009        0.26001
O          4.24841        1.66361        0.64826
O          2.01685        0.65190        1.16874
O          3.77141       -0.63579       -0.02822
H          3.03439       -1.30847       -0.18622
C          2.52466        1.29186       -1.32369
H          2.10607        2.29147       -1.19547
H          3.35170        1.30930       -2.03330
H          1.75059        0.57970       -1.62205
H         -4.63112       -0.47218       -0.38647
H         -3.99274       -1.90352       -1.23255
H         -4.09574       -2.22219        1.23236
H         -2.47022       -2.41070        0.58016
H         -3.24761       -0.63095        2.56638
H         -1.77551       -0.77175        1.85899
H         -2.94664       -0.01625       -2.12093
H         -2.56905        0.69817       -0.63909
C         -3.74653       -1.09802       -0.53570
C         -3.25592       -1.67729        0.78811
N         -2.70382       -0.23950       -1.15793
N         -2.76481       -0.62431        1.67710
N         -2.10602        2.24675       -0.13314
C         -0.82192        2.02112        0.53499
H         -0.98729        1.45716        1.45329
H         -0.17125        1.42528       -0.10831
H         -0.32030        2.96866        0.78584
C         -1.92516        3.05822       -1.33290
H         -1.22194        2.55954       -2.00773
H         -2.88241        3.18134       -1.84938
H         -1.52685        4.05906       -1.10092
C         -3.08096        2.83770        0.77907
H         -4.02984        2.99453        0.25700
H         -3.24802        2.14414        1.60618
H         -2.73714        3.80639        1.17649
