32
1sa1msa1a1eda_308.log	Energy: -1011220.3155725
S          0.72958       -0.73958       -0.81393
O         -0.57300       -1.24161       -1.28578
O          1.86375       -0.92163       -1.70798
O          0.59946        0.85914       -0.67056
O          1.01931       -1.22996        0.57717
H         -0.23316        1.07812       -0.17751
H          2.42273       -0.81243        1.02171
S         -3.04490        0.88450        0.11451
O         -3.94383        1.97256       -0.20037
O         -1.70064        1.20514        0.62577
O         -2.88690       -0.00018       -1.18972
H         -2.01111       -0.48646       -1.21063
C         -3.80726       -0.21864        1.27288
H         -3.91661        0.33013        2.20940
H         -4.78392       -0.48847        0.86996
H         -3.15968       -1.09840        1.38977
N         -1.68438       -2.71951        1.19489
H         -1.70554       -3.56007        1.76234
H         -0.77789       -2.27337        1.32087
H         -1.70975       -3.00325        0.21992
H          5.33595       -0.25531        0.52324
H          4.11905       -0.92795       -0.61023
H          4.68178        1.53199       -1.03235
H          2.97089        1.18689       -0.78050
H          4.73459        2.58387        1.06006
H          3.13572        2.79474        0.76550
H          3.79271       -1.25458        1.92880
H          3.34420        0.36466        1.87216
C          4.29897       -0.19879        0.18024
C          3.94405        1.21529       -0.28744
N          3.41602       -0.51769        1.33815
N          3.86342        2.09954        0.87780
