35
1sa1msa1ma1eda_220.log	Energy: -1035882.0156342
S         -0.86408        1.21252        0.25471
O         -1.16126        0.82988        1.63217
O         -0.11091        0.16215       -0.51233
O         -2.24236        1.38321       -0.50531
O         -0.15736        2.50836        0.08544
H         -2.99403        0.93376        0.05862
H          1.21987        2.24755       -0.66925
S          2.72488       -1.27963        0.15301
O          3.15884       -0.50742        1.30964
O          2.93298       -0.63421       -1.15682
O          1.24379       -1.74866        0.28797
H          0.58890       -0.97494        0.02458
C          3.54662       -2.85140        0.14074
H          4.61434       -2.65283        0.04570
H          3.32954       -3.35338        1.08327
H          3.17851       -3.42674       -0.70781
N          2.19055        2.07808       -1.07411
H          2.30025        1.05838       -1.23521
C          3.22294        2.54495       -0.11822
H          4.21321        2.39508       -0.54801
H          3.05460        3.59861        0.10228
H          3.13034        1.94997        0.79016
H          2.25456        2.55525       -1.97026
H         -5.43155       -0.72399       -1.01539
H         -5.08959       -2.44558       -0.82086
H         -5.04140       -1.61361        1.37614
H         -3.33017       -1.74958        0.92352
H         -4.90279        0.72257        1.04354
H         -3.53245        0.34066        1.86994
H         -3.72337       -1.57924       -2.57248
H         -2.98708       -0.51945       -1.56304
C         -4.64274       -1.44867       -0.74103
C         -4.26069       -1.21402        0.71638
N         -3.47129       -1.41173       -1.60568
N         -4.02368        0.21645        0.98662
