27
1sa1msa1a1ma_66.log	Energy: -951833.5353143
S         -1.23709        0.38017        0.33936
O         -1.47344        1.38790       -0.73653
O         -1.09120       -0.98773       -0.17386
O         -0.09012        0.82981        1.18586
O         -2.48447        0.41107        1.29655
H         -3.19525       -0.25483        0.93275
S          2.81266       -0.52333       -0.08902
O          4.20969       -0.83896        0.10445
O          2.48002        0.67724       -0.87964
O          2.14366       -0.40452        1.33052
H          1.22292        0.02718        1.28960
C          1.97394       -1.89482       -0.84362
H          2.37483       -1.99863       -1.85255
H          2.19266       -2.78162       -0.24845
H          0.90153       -1.68141       -0.85406
N          0.77184        2.78289       -0.60051
H         -0.17821        2.33126       -0.78170
H          0.96182        3.56368       -1.22168
H          0.77341        3.07923        0.37382
H          1.48834        2.02960       -0.70737
N         -4.08738       -1.30929        0.17150
H         -3.38223       -2.01129       -0.04170
C         -4.59563       -0.70298       -1.06734
H         -5.05417       -1.42926       -1.74764
H         -5.33376        0.06062       -0.81335
H         -3.76514       -0.21160       -1.57920
H         -4.83005       -1.75936        0.69631
