30
1sa1msa1a1dma_101.log	Energy: -976487.4183775
S         -2.01168       -0.04528        0.47287
O         -0.77146        0.04590        1.26770
O         -3.24017       -0.33834        1.20761
O         -2.14046        1.14584       -0.42793
O         -1.73808       -1.30038       -0.50460
H         -0.74481        1.87291       -0.40479
H         -2.62656       -1.62882       -0.84367
S          2.70065       -0.93972       -0.16840
O          3.73034       -1.67057       -0.88497
O          2.23234        0.33515       -0.69793
O          3.28443       -0.61484        1.31247
H          4.13887       -1.06115        1.40070
C          1.31525       -1.97098        0.20362
H          0.64426       -1.41797        0.86851
H          0.79814       -2.16466       -0.73737
H          1.69327       -2.89179        0.64743
N         -4.30243       -1.97341       -1.06366
H         -4.76274       -1.48830       -1.82600
H         -4.57591       -1.52641       -0.18898
H         -4.62435       -2.93464       -1.05382
N          0.23135        2.29585       -0.30136
C          0.29750        3.00616        0.99296
C          0.55416        3.12409       -1.47773
H          0.86950        1.48756       -0.27467
H         -0.42974        3.81945        0.98651
H          0.04454        2.28866        1.77332
H          1.30343        3.40302        1.14239
H         -0.17189        3.93513       -1.55193
H          1.56133        3.53187       -1.37606
H          0.49962        2.50037       -2.36980
