38
1sa1msa1dma1eda_01.log	Energy: -1060568.7522820
S         -1.00853        1.81895       -0.62262
O         -0.58653        1.25304        0.72665
O         -0.89482        3.26345       -0.67455
O          0.15628        1.30009       -1.61814
O         -2.26781        1.20172       -1.04280
H         -1.69569       -1.56449       -0.12395
S          1.62244       -1.83090       -0.37892
O          1.14598       -2.26751        0.95944
O          2.72993       -0.84179       -0.30808
O          0.49613       -1.37062       -1.24096
H          0.23062        0.31384       -1.57735
C          2.31091       -3.26671       -1.17685
H          3.13330       -3.63238       -0.56194
H          1.52632       -4.01874       -1.26045
H          2.66690       -2.96752       -2.16265
N          2.10915        1.54547        0.84740
C          2.48996        2.79575        0.15466
C          2.66132        1.39195        2.20705
H          1.06034        1.48365        0.88519
H          3.57641        2.83921        0.06093
H          2.01902        2.79484       -0.82783
H          2.12376        3.64826        0.72795
H          3.75091        1.42739        2.16046
H          2.28879        2.19579        2.84399
H          2.34618        0.42466        2.59966
H          2.39478        0.70970        0.28771
H         -3.68166        0.29554        1.01892
H         -4.78175       -1.01375        1.46986
H         -2.52578       -1.10938        2.66061
H         -2.90330       -2.58179        1.72917
H         -1.16199       -0.32622        0.84583
H         -0.65351       -1.88514        1.12909
H         -4.78530       -1.58018       -0.72462
H         -3.64263       -0.43159       -1.06287
C         -3.84808       -0.78472        0.94688
C         -2.70251       -1.50991        1.65987
N         -3.88890       -1.20341       -0.45042
N         -1.47898       -1.32717        0.85229
