38
1sa1msa1dma1eda_117.log	Energy: -1060556.3903078
S         -1.36251        1.69354       -0.36493
O         -1.44452        0.49496       -1.43471
O         -0.58413        2.78201       -0.97730
O         -2.79684        1.98141       -0.13155
O         -0.70335        1.13362        0.83849
H         -3.30552        0.52883        0.46071
H          1.24240        1.29082        0.65439
S          0.84033       -1.86394       -0.23132
O         -0.52935       -2.28772        0.10545
O          1.68304       -1.48127        0.92133
O          0.86007       -0.78811       -1.29245
H         -0.58217       -0.00953       -1.44703
C          1.63859       -3.26144       -1.00657
H          1.05425       -3.54993       -1.88051
H          2.64546       -2.96196       -1.29967
H          1.67302       -4.07337       -0.27948
N         -3.64759       -0.40470        0.83319
C         -2.80826       -0.82505        1.98952
C         -3.66366       -1.40297       -0.26989
H         -4.60075       -0.22809        1.14863
H         -1.80650       -1.04009        1.61622
H         -2.76968       -0.00644        2.70708
H         -3.24918       -1.71762        2.43718
H         -2.62859       -1.62382       -0.53165
H         -4.16699       -2.30682        0.07790
H         -4.18390       -0.97058       -1.12395
H          3.67693        2.37603       -0.69067
H          2.93487        3.08000        0.76928
H          4.89730        1.69017        1.32468
H          3.43067        1.01892        2.04161
H          5.11028       -0.44613        0.62784
H          3.49254       -0.73228        0.54833
H          1.22966        2.20591       -0.67483
H          1.91344        0.68576       -0.70261
C          3.14117        2.15004        0.23346
C          3.95491        1.18660        1.08817
N          1.83907        1.55688       -0.14634
N          4.22158       -0.04441        0.35807
