35
1sa1msa1ma1eda_24.log	Energy: -1035901.7782981
S         -2.64119       -0.81694        0.16669
O         -2.31576       -2.01741        0.96078
O         -2.69443        0.42029        0.97454
O         -1.83382       -0.68734       -1.05658
O         -4.14582       -1.03593       -0.40336
H         -4.74334       -1.12658        0.35135
S          2.81068       -0.07183       -0.01891
O          2.76671        1.31349       -0.50852
O          2.92075       -1.12998       -1.03571
O          1.62932       -0.35086        0.90144
C          4.24598       -0.20157        1.03546
H          5.12629       -0.01771        0.41878
H          4.16595        0.54968        1.82116
H          4.27880       -1.20472        1.46078
N          0.20575       -2.42503       -0.19566
H         -0.20867       -1.94162       -1.00102
H          0.79447       -1.70279        0.28674
C          0.99318       -3.61605       -0.57461
H          1.34984       -4.10470        0.33193
H          0.36308       -4.30233       -1.14028
H          1.84304       -3.28271       -1.16920
H         -0.60896       -2.62370        0.40787
H          0.73520        2.30556       -1.05841
H         -0.76098        1.37215       -1.32044
H         -1.12861        3.81928       -1.79920
H         -2.13350        3.24187       -0.46447
H          0.31871        4.82478       -0.17299
H         -1.17465        5.14431        0.41856
H          0.50176        0.96193        0.81460
H         -0.03812        2.50912        1.26699
C         -0.29561        2.16072       -0.72731
C         -1.10182        3.45141       -0.76537
N         -0.23622        1.69019        0.68291
N         -0.52724        4.39914        0.19243
H         -1.15421        1.28320        0.95530
