36
1sa1msa2dma_26.log	Energy: -1025828.0118524
S          0.03750        2.07905       -0.44536
O         -0.99831        1.32830       -1.21307
O         -0.28886        3.45917       -0.15388
O          0.05319        1.35049        1.01495
O          1.38848        1.84456       -1.01881
H          0.18906        0.37068        0.90203
H          2.44501        0.84481       -0.30942
S         -0.10097       -2.28033        0.03061
O          0.49909       -3.59791        0.19429
O          0.69152       -1.19163        0.72867
O         -1.53524       -2.17489        0.41471
H         -2.37393       -0.74270        0.44432
C         -0.02707       -1.84564       -1.70270
H          1.00646       -1.95056       -2.03646
H         -0.66276       -2.54415       -2.24844
H         -0.36746       -0.81370       -1.82224
N         -2.89832        0.15050        0.27031
C         -3.15984        0.85679        1.54180
C         -4.10606       -0.16157       -0.51827
H         -2.23372        0.71884       -0.31609
H         -3.77732        0.22715        2.18447
H         -2.20242        1.06761        2.01756
H         -3.67210        1.79696        1.33113
H         -4.76741       -0.79997        0.06956
H         -4.61659        0.76596       -0.78182
H         -3.80385       -0.68601       -1.42473
N          2.97834        0.11876        0.24275
C          3.40158        0.72007        1.52534
C          4.07058       -0.45181       -0.56662
H          2.24534       -0.60283        0.43173
H          4.12566        1.51214        1.32883
H          2.51892        1.14186        2.00688
H          3.84595       -0.04853        2.15958
H          4.79108        0.33126       -0.80692
H          4.56113       -1.25125       -0.00888
H          3.65039       -0.85369       -1.48875
