30
1sa1msa2ma_133.log	Energy: -976477.6146214
S         -1.93702        0.73659       -0.16680
O         -0.66111        1.46545       -0.24642
O         -3.07181        1.40909       -0.82546
O         -1.76998       -0.61255       -1.02327
O         -2.28077        0.30760        1.21689
H         -0.91699       -1.04977       -0.77687
H         -3.97466        0.12144        1.25822
S          1.88263       -0.88070       -0.16198
O          2.61338       -0.75896       -1.40907
O          0.59852       -1.60018       -0.19214
O          1.64320        0.54542        0.49089
H          0.74317        0.91967        0.22558
C          2.92419       -1.60594        1.07178
H          3.22585       -2.58191        0.68988
H          3.78314       -0.93551        1.20035
H          2.34865       -1.70352        1.99180
N          4.78684        1.07811        0.89243
H          3.86843        1.50594        0.81626
C          5.44405        1.04516       -0.41561
H          5.60585        2.03407       -0.86823
H          6.41532        0.55126       -0.31818
H          4.83312        0.45307       -1.10140
H          5.32232        1.63157        1.55218
N         -4.87221        0.15858        0.70495
H         -5.64953        0.49659        1.26630
C         -5.13092       -1.15542        0.06614
H         -5.98365       -1.07370       -0.60700
H         -4.23702       -1.42677       -0.49699
H         -5.32443       -1.90059        0.83685
H         -4.58710        0.85731       -0.01516
