36
1sa1msa2dma_142.log	Energy: -1025812.4299828
S          1.36686       -0.28795        0.94648
O          0.31733       -0.17438        1.95133
O          2.61544       -0.96154        1.38045
O          0.84729       -1.25122       -0.22953
O          1.67975        1.01417        0.26798
H         -0.05092       -0.93311       -0.55285
H          3.24165        0.75244       -0.49506
S         -2.74048       -1.00630       -0.38971
O         -1.49164       -0.39987       -0.96831
O         -3.56253       -1.72749       -1.35413
O         -3.48635        0.06681        0.36196
H         -2.81201        1.39507        0.27572
C         -2.19630       -2.15762        0.85863
H         -1.64937       -2.96025        0.36239
H         -1.54870       -1.62907        1.56060
H         -3.08524       -2.55118        1.35218
N         -2.41256        2.40203        0.16296
C         -2.25757        2.66525       -1.28628
C         -1.15285        2.54374        0.93336
H         -3.12415        3.01901        0.55150
H         -1.59367        1.89750       -1.68471
H         -3.23290        2.57632       -1.76569
H         -1.84306        3.66370       -1.44003
H         -0.36552        1.97435        0.43939
H         -0.87444        3.59873        0.98431
H         -1.29754        2.13271        1.93182
N          4.03533        0.07656       -0.61097
C          5.34848        0.73267       -0.49340
C          3.82135       -0.71094       -1.84522
H          3.81820       -0.52654        0.22152
H          5.48071        1.43596       -1.31729
H          5.38998        1.26551        0.45666
H          6.13503       -0.02280       -0.52512
H          3.89203       -0.05157       -2.71174
H          4.57903       -1.49339       -1.90846
H          2.82656       -1.15612       -1.78812
