28
1sa1msa1eda_133.log	Energy: -975723.2316546
S         -1.65608        1.74469        0.10734
O         -2.34290        0.76042       -0.77925
O         -2.56025        2.65125        0.79438
O         -0.60290        1.09349        0.90307
O         -0.76284        2.68149       -0.91341
H         -1.35047        3.35882       -1.27273
S          2.63280       -0.24272        0.02644
O          2.49171       -1.01362        1.24999
O          1.87913       -0.64336       -1.15591
O          4.19912       -0.29631       -0.39678
H          4.66147       -0.85908        0.24105
C          2.40238        1.48520        0.31313
H          1.34889        1.60749        0.59081
H          3.07212        1.78658        1.11806
H          2.62329        2.01042       -0.61592
H         -0.17712       -2.79304        0.59476
H         -0.70483       -1.20313        1.20253
H         -2.42289       -2.98032        1.70320
H         -3.05000       -1.72668        0.62681
H         -2.28485       -4.43740       -0.16007
H         -3.62847       -3.58921       -0.54795
H          0.12127       -1.19599       -1.11288
H         -1.22642       -2.14446       -1.51682
C         -0.93219       -2.00754        0.50207
C         -2.33960       -2.55624        0.69493
N         -0.84687       -1.44621       -0.87053
N         -2.63329       -3.51012       -0.37829
H         -1.44053       -0.56649       -0.92692
