33
1sa1msa1ma1dma_165.log	Energy: -1001149.5436772
S          0.48086       -1.52357       -0.43454
O         -0.77309       -2.30812       -0.42905
O          0.45677       -0.40836       -1.39016
O          0.58427       -0.83754        1.04206
O          1.71037       -2.33270       -0.47485
H         -0.26707       -0.36874        1.20992
H          2.99643       -1.20830       -0.20714
S         -2.80576        0.48247        0.11809
O         -2.64599        1.56516       -0.83152
O         -1.82472        0.38470        1.21257
O         -2.92510       -0.91029       -0.60240
H         -2.06298       -1.45836       -0.57221
C         -4.42288        0.58703        0.84567
H         -4.48261        1.55014        1.35317
H         -5.15868        0.53037        0.04367
H         -4.54222       -0.23549        1.54981
N          3.58509       -0.41601        0.14256
H          4.46880       -0.41479       -0.36103
C          3.77993       -0.55821        1.60244
H          4.31471        0.31116        1.98730
H          2.79163       -0.62339        2.05707
H          4.33892       -1.46852        1.82099
H          3.02558        0.51867       -0.07973
N          2.07681        1.76648       -0.36005
C          2.58315        2.69760       -1.36709
C          1.63429        2.43693        0.86307
H          1.29234        1.24092       -0.75760
H          3.49116        3.18545       -0.99662
H          2.82675        2.14920       -2.28051
H          1.85112        3.47695       -1.61726
H          2.48757        2.93043        1.34097
H          0.86160        3.19163        0.66629
H          1.22516        1.69418        1.55064
