38
1sa1msa1dma1eda_11.log	Energy: -1060567.0490769
S         -1.02096       -2.09674       -0.39106
O         -1.21894       -0.97980       -1.54498
O         -2.02808       -3.09692       -0.66840
O          0.39724       -2.53159       -0.47283
O         -1.22223       -1.34000        0.89206
H          1.19537       -1.61552        0.63727
H         -2.08197        0.02347        0.69888
S          0.52329        1.97063       -0.36488
O          0.70759        1.58351        1.06173
O         -0.79688        2.59941       -0.61233
O          0.79297        0.82173       -1.27868
H         -0.45341       -0.35247       -1.53377
C          1.76612        3.18979       -0.72848
H          1.60733        4.04227       -0.06804
H          2.73699        2.72652       -0.54295
H          1.66047        3.48207       -1.77333
N         -2.64544        0.90388        0.54489
C         -2.87375        1.55580        1.84907
C         -3.86779        0.54953       -0.20546
H         -2.03897        1.53301       -0.02270
H         -3.44456        0.88467        2.49273
H         -1.90107        1.76823        2.29387
H         -3.42137        2.48783        1.69981
H         -4.47218       -0.12960        0.39765
H         -4.43198        1.45604       -0.43139
H         -3.56551        0.04847       -1.12528
H          3.49983       -0.42192        2.12125
H          3.23756       -2.18483        2.01503
H          4.80346       -1.45992        0.29994
H          3.32668       -2.09557       -0.43567
H          4.29597        0.11228       -1.27807
H          2.69134        0.12844       -0.97228
H          1.11406       -1.24233        2.24484
H          1.36881       -0.01571        1.18450
C          3.08401       -1.22708        1.51152
C          3.74140       -1.25234        0.13732
N          1.61955       -1.00907        1.39184
N          3.60911        0.03337       -0.53725
