33
1sa1msa1a1tma_48.log	Energy: -1001153.9057654
S          1.54426       -1.50447       -0.02998
O          0.52423       -2.03575       -0.97079
O          2.76814       -1.06042       -0.69670
O          0.96966       -0.54332        0.92449
O          1.94287       -2.75670        0.92552
H          2.39673       -3.41762        0.38479
S         -2.42739       -0.21466       -0.15179
O         -3.82988       -0.02314       -0.45162
O         -1.61445        0.97573        0.12755
O         -1.79817       -1.00612       -1.36379
H         -0.86612       -1.36261       -1.18239
C         -2.23887       -1.32940        1.22230
H         -2.72107       -0.85852        2.08011
H         -2.73383       -2.26718        0.97086
H         -1.17147       -1.46630        1.40501
N          0.18455        1.76007        2.55593
H          0.06606        2.12973        3.49266
H          0.67182        0.87009        2.62045
H         -0.73673        1.55464        2.17553
N          0.99223        2.04474       -0.43882
C          0.89160        1.54236       -1.83536
H          1.48282        0.63109       -1.92755
H         -0.15762        1.33824       -2.04774
H          1.27820        2.30855       -2.51040
C          0.23717        3.31159       -0.26079
H         -0.80007        3.13628       -0.54223
H          0.29203        3.58311        0.79264
H          0.69126        4.07690       -0.89375
C          2.40400        2.18281        0.00730
H          2.38938        2.46457        1.06000
H          2.90287        1.22171       -0.12099
H          2.88634        2.95354       -0.59766
H          0.55936        1.32988        0.17130
