40
1sa1msa2eda_276.log	Energy: -1095273.0983232
S          0.26561       -1.44346       -0.28402
O          0.80163       -0.41211       -1.20624
O         -0.71059       -2.34248       -0.89872
O          1.48278       -2.37405        0.14094
O         -0.26396       -0.82154        0.96849
H          2.25427       -1.80848        0.38918
H         -1.89852       -1.22429        0.99884
S          3.84614        0.57971       -0.01787
O          4.79599        0.41637       -1.09931
O          3.45692       -0.61453        0.74695
O          2.54155        1.32499       -0.49980
H          1.82903        0.65757       -0.79229
C          4.46736        1.78311        1.13109
H          5.39773        1.38188        1.53399
H          4.65147        2.71011        0.58834
H          3.72902        1.92457        1.91928
H         -2.11468       -0.11889        3.21988
H         -3.43398        1.05574        3.27040
H         -4.28518       -1.06168        2.48577
H         -4.38919        0.14900        1.19310
H         -3.13902       -2.32336        1.03622
H         -3.12332       -1.13527       -0.16572
H         -1.74077        2.20810        2.27075
H         -1.25069        0.96957        1.33484
C         -2.78824        0.48677        2.59433
C         -3.70112       -0.44243        1.80120
N         -2.07784        1.42216        1.72528
N         -2.93658       -1.33845        0.88318
H         -4.43056        1.09030       -0.74379
H         -4.36156        1.77713       -2.36695
H         -2.12536        0.97374       -2.72465
H         -1.83285        0.78379       -1.00527
H         -3.77141       -0.88178       -2.46144
H         -2.25015       -1.33758       -2.02722
H         -3.99614        3.57465       -0.92695
H         -2.87563        2.74422       -0.04642
C         -3.76657        1.60542       -1.46188
C         -2.59669        0.67726       -1.78155
N         -3.26085        2.87962       -0.97983
N         -3.03239       -0.72948       -1.78111
