40
1sa1msa2eda_173.log	Energy: -1095285.6209901
S          0.82240       -1.85372       -0.10350
O          0.52124       -1.19641        1.17771
O          0.96555       -0.69280       -1.20037
O          2.16731       -2.48053       -0.12414
O         -0.25235       -2.75652       -0.57885
H          3.06718       -1.37772        0.63689
H         -1.65101       -2.01831       -1.02522
S         -1.07064        2.11964       -0.29349
O         -2.36231        2.79972       -0.41682
O          0.11714        2.81666       -0.81660
O         -1.15969        0.71909       -0.89673
H          0.18049       -0.06266       -1.11836
C         -0.76781        1.83662        1.44552
H         -0.56480        2.80700        1.90044
H         -1.66125        1.39078        1.88601
H          0.08357        1.16098        1.53895
H          5.17088        0.73633        0.83115
H          5.00624       -0.54362       -0.39794
H          4.26593        1.74786       -1.24352
H          2.97262        0.53575       -1.29603
H          3.17975        2.72220        0.61054
H          1.86004        2.15857       -0.18233
H          3.97440       -0.88442        1.97632
H          2.79024        0.13366        1.35420
C          4.46203        0.17695        0.21446
C          3.60302        1.12783       -0.62769
N          3.53629       -0.55251        1.12131
N          2.73330        1.87732        0.27058
H         -4.53529       -1.72049       -0.46207
H         -3.37517       -2.95414        0.08688
H         -3.69293       -1.61356        2.00823
H         -2.17694       -1.02400        1.34811
H         -3.41720        0.91488        0.48406
H         -4.80563        0.30469        1.13607
H         -2.90648       -1.72637       -2.11081
H         -2.29149       -0.49012       -1.13891
C         -3.51724       -1.88680       -0.10050
C         -3.25857       -1.06260        1.16810
N         -2.56141       -1.50444       -1.18020
N         -3.79462        0.28278        1.18495
