30
1sa1msa1a1dma_124.log	Energy: -976476.7034839
S         -2.09798       -0.74554       -0.19608
O         -1.16847       -1.34041       -1.14939
O         -3.46622       -1.20400       -0.15579
O         -1.52275       -0.92431        1.26307
O         -2.05502        0.80113       -0.43989
H         -0.53385       -0.78621        1.26324
H         -2.91214        1.24057       -0.03970
S          2.01036       -1.20447        0.19203
O          2.30241       -2.57879        0.54170
O          1.06995       -0.46731        1.06127
O          1.48234       -1.09337       -1.30299
H          0.49359       -1.19910       -1.32142
C          3.49491       -0.25733        0.05362
H          3.97576       -0.29923        1.03197
H          4.12199       -0.73506       -0.69965
H          3.22178        0.77140       -0.22102
N         -4.29567        1.70385        0.53612
H         -4.26208        2.05028        1.48975
H         -4.83485        0.84027        0.53195
H         -4.78523        2.38699       -0.03308
N          2.18632        2.69267       -0.41134
C          1.93928        2.98841        0.99374
C          0.95586        2.42928       -1.14775
H          2.68333        3.46475       -0.84204
H          1.51914        2.09835        1.47312
H          2.88183        3.23172        1.49258
H          1.23520        3.82371        1.14900
H          0.45890        1.55605       -0.71862
H          0.23886        3.26703       -1.11365
H          1.18696        2.20740       -2.19263
