33
1sa1msa1a1tma_44.log	Energy: -1001154.3674554
S          1.81206       -1.22573       -0.09004
O          2.75690       -0.37406        0.63436
O          1.05222       -2.16753        0.73157
O          0.95062       -0.44227       -1.02868
O          2.68396       -2.10857       -1.14553
H          3.27459       -2.68041       -0.63673
S         -2.28857       -0.65680        0.00181
O         -3.67145       -0.39907       -0.34224
O         -1.54049        0.39913        0.70194
O         -1.52147       -1.00603       -1.33272
H         -0.51817       -0.87318       -1.22325
C         -2.16522       -2.14464        0.96074
H         -2.67341       -1.95988        1.90795
H         -2.66139       -2.94030        0.40500
H         -1.10389       -2.35901        1.10760
N          0.85441        1.17933        2.50919
H          1.63718        0.59334        2.21977
H          0.01370        0.61537        2.40500
H          0.96724        1.37417        3.49856
N          0.24160        2.32590       -0.35740
C          1.70419        2.59155       -0.35337
H          2.03958        2.59003        0.68246
H          2.20080        1.78769       -0.89430
H          1.88056        3.55949       -0.82753
C         -0.30136        2.24448       -1.73735
H          0.25041        1.47708       -2.27797
H         -1.35536        1.97241       -1.68181
H         -0.18430        3.21842       -2.21670
C         -0.49971        3.31023        0.47228
H         -1.55320        3.03209        0.47620
H         -0.09764        3.24791        1.48322
H         -0.36079        4.30431        0.04211
H          0.08653        1.40181        0.07618
