27
1sa1msa1a1ma_40.log	Energy: -951835.3225742
S         -1.91870        0.98142       -0.12503
O         -1.94619        0.66550        1.32050
O         -1.07684       -0.07357       -0.83019
O         -3.18730        1.21217       -0.76810
O         -1.08563        2.34271       -0.28672
H         -0.22836        2.25700        0.18063
S          2.03837        0.44045        0.06067
O          2.09870       -0.75488        0.91372
O          1.45850        1.63486        0.68224
O          1.31693        0.12103       -1.27807
H          0.24902        0.07911       -1.13040
C          3.67603        0.80636       -0.50690
H          4.07387       -0.07938       -1.00118
H          3.61726        1.65049       -1.19326
H          4.26701        1.05929        0.37377
N         -0.46300       -1.51814        1.94493
H         -0.57668       -1.88662        2.88418
H         -0.79663       -2.21240        1.19680
H         -1.03235       -0.64331        1.81770
H          0.52565       -1.28996        1.75965
N         -1.23730       -2.95583       -0.27625
H         -1.94398       -3.68289       -0.31796
C         -0.02372       -3.36471       -0.99625
H         -0.20114       -3.58485       -2.05505
H          0.71291       -2.55969       -0.93476
H          0.40384       -4.25148       -0.52116
H         -1.62208       -2.11989       -0.71811
