38
1sa1msa1dma1eda_335.log	Energy: -1060540.8224442
S          0.18068       -1.83160       -0.30795
O         -1.16456       -2.43529       -0.31111
O          1.28408       -2.71593       -0.65069
O          0.18621       -0.70873       -1.46504
O          0.42997       -1.07575        0.96635
H         -0.60522       -0.13326       -1.33370
H          1.99580       -1.03210        1.28758
S         -3.08299        0.38371        0.09637
O         -4.32216        1.12289        0.02393
O         -1.97511        0.78685       -0.78287
O         -3.41403       -1.13884       -0.15483
H         -2.56606       -1.67440       -0.24715
C         -2.46868        0.39839        1.76690
H         -2.27457        1.44058        2.02435
H         -3.24067       -0.01920        2.41303
H         -1.54650       -0.18768        1.80030
N          1.31052        3.07560       -0.11182
C          0.44821        2.45502        0.89133
C          0.81275        2.87486       -1.47268
H          1.36817        4.07204        0.07296
H          0.43150        1.37121        0.73848
H          0.84743        2.65597        1.89014
H         -0.59147        2.81328        0.83974
H          0.84639        1.80895       -1.71410
H         -0.22513        3.21247       -1.60841
H          1.45716        3.40529       -2.17870
H          4.84517       -1.14418        0.37227
H          3.40576       -1.88058       -0.41184
H          4.12792        0.34391       -1.47619
H          2.46685        0.31478       -0.89128
H          4.66934        1.79522        0.27468
H          3.04255        2.14755        0.20804
H          3.34549       -1.64298        2.11677
H          3.23803        0.01742        1.78260
C          3.78184       -1.02373        0.14715
C          3.51330        0.30139       -0.57014
N          3.04823       -0.94306        1.44235
N          3.73829        1.40525        0.36155
