41
1sa1msa1tma1eda_55.log	Energy: -1085219.7864459
S          2.70223        0.70653       -0.36964
O          1.79970       -0.23186       -1.07854
O          2.41484        2.10983       -0.73210
O          2.82002        0.42942        1.06181
O          4.20263        0.40546       -0.93340
H          4.25232        0.74006       -1.83874
S         -2.62601       -0.74970       -0.28451
O         -3.10612        0.58083        0.14139
O         -2.75871       -1.81876        0.72354
O         -1.22015       -0.68237       -0.82054
C         -3.63766       -1.22914       -1.67788
H         -4.66698       -1.31969       -1.32956
H         -3.55771       -0.45871       -2.44506
H         -3.27568       -2.18602       -2.05530
H         -1.08620        1.28361        1.30688
H          0.54011        2.01986        1.35263
H         -1.35008        3.48718        2.27114
H         -0.42138        4.24920        0.97061
H         -2.97158        2.84698        0.50641
H         -2.71224        4.48003        0.39582
H         -0.54477        0.89162       -0.79599
H         -1.11106        2.46971       -0.96481
C         -0.45941        2.08778        0.92042
C         -1.11996        3.43647        1.19831
N         -0.36284        1.89369       -0.55225
N         -2.27836        3.56904        0.31991
H          0.57420        2.16667       -0.89078
N          0.87592       -2.32829        0.52193
C          0.00320       -3.43121        0.04308
H         -1.03530       -3.10647        0.10558
H          0.27248       -3.66299       -0.98776
H          0.16817       -4.30277        0.68065
C          2.30442       -2.73799        0.55495
H          2.61818       -2.99066       -0.45762
H          2.89714       -1.90243        0.92597
H          2.40120       -3.60408        1.21310
C          0.43084       -1.80623        1.84275
H          1.03685       -0.92922        2.07527
H         -0.62835       -1.55727        1.77116
H          0.58200       -2.58607        2.59276
H          0.80984       -1.53737       -0.15036
