35
1sa1msa1ma1eda_09.log	Energy: -1035902.2732274
S         -2.72580        0.23855       -0.22082
O         -2.30465        1.27037       -1.19295
O         -3.00680       -1.07099       -0.83735
O         -1.85320        0.16369        0.96047
O         -4.13708        0.76234        0.39561
H         -4.77709        0.81712       -0.32692
S          2.21676       -1.09390       -0.31596
O          1.65685       -0.89722        1.04050
O          2.32491        0.17627       -1.08583
O          1.49419       -2.16234       -1.06417
C          3.89151       -1.67807       -0.12800
H          4.45464       -0.92793        0.42762
H          3.86377       -2.62070        0.41878
H          4.31640       -1.82159       -1.12152
N         -0.82921       -2.40432        0.33722
H         -0.78483       -1.52636        0.87488
H         -1.70116       -2.31573       -0.20750
C         -0.78729       -3.58376        1.22078
H         -0.84030       -4.48934        0.61678
H          0.15215       -3.56404        1.77276
H         -1.62728       -3.55028        1.91446
H         -0.00266       -2.38517       -0.30840
H         -0.35625        2.78407        1.12951
H          0.48381        1.22310        1.24685
H          1.95380        3.08629        2.07592
H          2.62762        2.27266        0.65660
H          1.34988        4.90969        0.66624
H          2.78642        4.46746        0.02019
H         -0.64529        1.73803       -0.94215
H          0.58406        2.89106       -1.14745
C          0.49700        2.20334        0.77076
C          1.81808        2.92409        0.99930
N          0.32994        2.00735       -0.69318
N          1.84107        4.15339        0.20168
H          1.00493        1.27169       -1.00563
