32
1sa1msa1a1eda_173.log	Energy: -1011232.2355479
S          2.84400       -0.80898        0.09665
O          3.21613        0.37217        0.91222
O          2.46403       -1.98345        0.88355
O          1.89258       -0.46063       -0.97827
O          4.18503       -1.21228       -0.72766
H          4.80852       -1.61519       -0.10812
S         -3.09463       -0.39518       -0.08927
O         -2.82733       -1.52153       -1.01867
O         -3.33401        0.90579       -0.72386
O         -2.01238       -0.32199        0.96668
C         -4.58230       -0.82549        0.80133
H         -5.39356       -0.89498        0.07605
H         -4.42771       -1.78358        1.29769
H         -4.78650       -0.04093        1.53018
N         -0.26887       -2.04886       -0.15177
H         -1.03146       -2.37753       -0.75704
H         -0.76500       -1.39937        0.50899
H          0.23107       -2.78535        0.34191
H          0.43253       -1.50529       -0.68573
H          0.96424        3.74976       -1.04335
H          1.69041        2.19386       -1.55110
H         -0.93360        2.23476       -1.46590
H         -0.12096        0.92669       -0.61905
H         -1.51651        3.14070        0.56953
H         -1.35276        1.59219        1.05301
H          2.41449        3.37030        0.69381
H          0.95645        2.65157        1.19639
C          1.08067        2.69133       -0.79681
C         -0.28126        2.00549       -0.61915
N          1.76376        2.60773        0.52680
N         -0.84113        2.39186        0.67653
H          2.28909        1.70138        0.65965
