40
1sa1msa2eda_131.log	Energy: -1095292.1163594
S         -1.50097        0.72449       -1.46670
O         -1.21669       -0.73918       -2.03752
O         -0.92409        1.71477       -2.36781
O         -2.97466        0.75851       -1.31482
O         -0.85090        0.74627       -0.11312
H         -3.22166        0.19767        0.20842
H          0.64064        1.48387       -0.24271
S          2.07910       -1.32298       -0.28869
O          1.79898       -0.78852        1.06676
O          2.76811       -0.32634       -1.15656
O          0.88098       -1.91989       -0.93852
H         -0.34540       -1.09386       -1.70231
C          3.23421       -2.66764       -0.09356
H          4.13972       -2.27138        0.36601
H          2.77450       -3.42171        0.54563
H          3.44736       -3.07712       -1.08088
H         -3.70665       -1.99859        2.15306
H         -3.76343       -2.06413        0.37191
H         -1.67901       -3.15858        1.41899
H         -1.32211       -1.91997        0.22278
H         -0.88371       -1.72090        3.06300
H         -0.08055       -1.02471        1.80198
H         -4.07695        0.20584        1.66753
H         -2.39081        0.10603        1.69006
C         -3.21917       -1.67018        1.23141
C         -1.73983       -2.08316        1.21689
N         -3.26333       -0.18188        1.19803
N         -1.00460       -1.25800        2.16996
H          0.63853        3.90073        1.22030
H          1.81572        3.60820        2.48795
H          2.95544        3.25393        0.37726
H          2.74050        1.66598        1.15201
H          1.26280        2.69203       -1.17777
H          2.10551        1.23535       -0.95790
H         -0.32696        1.76927        1.65361
H          0.82076        1.39917        2.74597
C          1.22746        3.11379        1.70704
C          2.21869        2.51493        0.70374
N          0.31254        2.17375        2.33121
N          1.53020        1.98003       -0.49908
