36
1sa1msa2dma_25.log	Energy: -1025829.8108091
S          1.97987       -0.67816       -0.77524
O          1.56932        0.61943       -1.64285
O          3.35341       -0.94905       -1.13072
O          1.76767       -0.27703        0.65564
O          0.98900       -1.73537       -1.12972
H          0.05390        2.13281        0.24765
H          0.18215       -2.20200        0.23777
S         -2.09579        0.74390       -0.55451
O         -3.33589        1.50682       -0.54203
O         -1.77035        0.09291        0.75625
O         -0.90329        1.53424       -1.03408
H          0.60591        0.81696       -1.54296
C         -2.24890       -0.57257       -1.75253
H         -3.08945       -1.20315       -1.45829
H         -2.44763       -0.11405       -2.72164
H         -1.30870       -1.13029       -1.78345
N         -0.50372       -2.27765        1.03262
C          0.20848       -2.44031        2.31576
C         -1.48790       -3.33718        0.74453
H         -0.98338       -1.34466        1.00002
H          0.71276       -3.40819        2.32735
H          0.94754       -1.64332        2.38863
H         -0.50999       -2.38672        3.13579
H         -0.98489       -4.30521        0.72473
H         -2.26238       -3.33447        1.51309
H         -1.93856       -3.14411       -0.22884
N          0.77845        2.19371        0.99791
C          0.11605        2.42187        2.29688
C          1.80638        3.18636        0.62531
H          1.20823        1.23284        0.97127
H         -0.34961        3.40882        2.29848
H         -0.65107        1.65606        2.42029
H          0.85674        2.35977        3.09592
H          1.34593        4.17176        0.53843
H          2.58491        3.20277        1.38942
H          2.23578        2.88546       -0.33089
