30
1sa1msa2ma_126.log	Energy: -976480.6570634
S         -1.39511       -0.00939       -0.69922
O         -0.22151        0.44665       -1.45520
O         -2.61948       -0.20316       -1.50154
O         -1.08360       -1.48312       -0.15392
O         -1.66813        0.83030        0.50374
H         -0.17698       -1.49943        0.25238
H         -3.37963        0.58824        0.90958
S          2.63036       -0.93688        0.17495
O          3.62880       -1.96506       -0.01784
O          1.36774       -1.29482        0.84393
O          2.28851       -0.32231       -1.24601
H          1.34111       -0.01068       -1.30162
C          3.33024        0.43371        1.05129
H          3.59641        0.06946        2.04480
H          4.22081        0.75022        0.50755
H          2.57085        1.22816        1.10348
N         -4.23250        0.07050        0.59247
H         -5.07188        0.63405        0.70103
C         -4.31835       -1.25089        1.26384
H         -5.14131       -1.82103        0.83463
H         -3.37500       -1.76906        1.08786
H         -4.47249       -1.10593        2.33242
H         -3.97979       -0.05372       -0.41793
N          0.88604        2.60092        0.99024
H          0.03888        2.03645        0.97452
C          0.99172        3.38119       -0.24229
H          0.18588        4.11602       -0.38558
H          1.94711        3.91535       -0.25968
H          0.97227        2.69720       -1.09337
H          0.82462        3.21305        1.79691
