24
1sa1msa2a_71.log	Energy: -927164.9741394
S          2.12207       -0.81898        0.04766
O          1.18876       -0.50197       -1.06874
O          2.94923        0.33493        0.43388
O          1.49477       -1.52838        1.16120
O          3.12758       -1.87968       -0.67661
H          3.71456       -2.23566        0.00367
S         -2.68518       -0.08327       -0.02704
O         -1.98912        1.19288        0.09205
O         -3.47326       -0.35706       -1.21616
O         -3.68702       -0.16561        1.24579
H         -4.57441       -0.36497        0.91387
C         -1.55704       -1.40047        0.30889
H         -0.78922       -1.36975       -0.46927
H         -1.08154       -1.22603        1.27426
H         -2.11394       -2.33686        0.29264
N          0.41428        2.06331       -1.16611
H         -0.54193        1.95592       -0.80326
H          0.40214        2.52291       -2.07146
H          1.01151        2.60041       -0.46498
H          0.80806        1.08627       -1.24361
N          2.09768        3.09848        0.79742
H          1.67512        3.34232        1.68769
H          2.81893        3.78575        0.60422
H          2.55139        2.18508        0.90260
