35
1sa1msa1ma1eda_60.log	Energy: -1035900.3533057
S          1.22320        1.57000       -0.47965
O          0.78382        1.30195        0.92017
O          0.93985        0.20894       -1.29492
O          0.45951        2.65056       -1.09974
O          2.69831        1.66015       -0.59065
H          3.26048        0.14996       -0.53284
S         -2.22766       -1.24118       -0.13762
O         -2.92532       -0.53939        0.97424
O         -1.26187       -2.26365        0.29645
O         -1.64063       -0.24960       -1.09912
H         -0.03242       -0.02251       -1.25577
C         -3.50184       -2.09269       -1.05206
H         -3.96803       -2.81521       -0.38180
H         -4.23024       -1.35823       -1.39549
H         -3.03331       -2.59647       -1.89776
N         -1.85048        1.96671        0.71770
H         -1.83492        1.98169       -0.30540
H         -2.41975        1.13258        0.98079
C         -2.30019        3.24582        1.29451
H         -2.25269        3.17892        2.38118
H         -1.63895        4.03868        0.94538
H         -3.32557        3.44951        0.98573
H         -0.85794        1.74541        0.97400
H          4.24485       -2.08194        1.15563
H          3.80703       -0.42094        1.63754
H          2.07736       -2.20342        2.31194
H          1.42629       -0.88676        1.32929
H          1.87382       -3.61874        0.46081
H          0.66815       -2.56453        0.09005
H          4.46781       -0.99301       -0.84740
H          2.85055       -1.47694       -0.87175
C          3.52255       -1.27273        1.01779
C          2.09468       -1.75178        1.31318
N          3.55789       -0.86354       -0.41435
N          1.67378       -2.64924        0.24239
