32
1sa1msa1a1eda_132.log	Energy: -1011235.0061088
S         -1.48995        1.51105        0.15604
O         -0.85045        0.33902        1.05907
O         -1.12167        1.18607       -1.24536
O         -2.93469        1.33042        0.43255
O         -0.92365        2.78771        0.60418
H         -3.15839       -0.25319        0.65820
H          0.84396        2.97136       -0.31610
S          2.72678       -0.45550        0.27607
O          3.02798       -0.63205        1.69198
O          3.20405        0.83493       -0.31352
O          1.27614       -0.66231       -0.07170
H          0.03499        0.04098        0.69907
C          3.59555       -1.72909       -0.62640
H          4.66226       -1.58935       -0.44932
H          3.27107       -2.69724       -0.24384
H          3.36441       -1.62886       -1.68688
N          1.30731        2.50872       -1.11148
H          2.09177        1.86853       -0.77637
H          1.65124        3.19410       -1.77678
H          0.54727        1.93080       -1.51922
H         -3.69155       -2.95151       -0.47734
H         -3.83191       -1.36023       -1.27159
H         -1.76825       -2.69315       -1.98936
H         -1.39192       -1.10338       -1.31718
H         -0.86620       -3.66335       -0.06206
H         -0.05612       -2.22402        0.05737
H         -3.99980       -1.56285        1.32762
H         -2.32297       -1.63494        1.18586
C         -3.23031       -1.96713       -0.59304
C         -1.77646       -2.09677       -1.06923
N         -3.20596       -1.31260        0.74440
N         -0.97616       -2.65967        0.01261
