36
1sa1msa2dma_85.log	Energy: -1025814.5698779
S          0.22855       -1.36005       -0.58309
O          0.08907       -0.78127        0.79386
O         -0.02786       -0.33274       -1.60685
O          1.50931       -2.07076       -0.72790
O         -0.87591       -2.49378       -0.72412
H         -1.75620       -2.08879       -0.53486
S         -3.19750        0.33190        0.34244
O         -4.40743        0.81839        0.96482
O         -3.11944       -1.07935       -0.05393
O         -1.99062        0.65323        1.31703
H         -1.19442        0.05779        1.12241
C         -2.82751        1.31571       -1.09253
H         -3.63539        1.15391       -1.80742
H         -2.79017        2.36085       -0.78490
H         -1.87367        0.97225       -1.49937
N          3.19493       -0.40644        0.66003
C          4.61131       -0.44094        0.25588
C          2.96774       -0.44003        2.11909
H          2.72246        0.47371        0.23895
H          5.08180       -1.35235        0.62895
H          4.66806       -0.42322       -0.83311
H          5.12630        0.43062        0.66482
H          3.43259       -1.33221        2.54289
H          3.40250        0.45311        2.57244
H          1.89099       -0.47079        2.28582
H          2.67274       -1.18896        0.20755
N          1.89657        1.72036       -0.51422
C          2.71184        2.54044       -1.40720
C          1.16130        2.51057        0.47363
H          1.22174        1.18451       -1.06663
H          3.50494        3.03429       -0.83551
H          3.17526        1.90526       -2.16649
H          2.12668        3.31883       -1.91737
H          1.86716        3.01119        1.14509
H          0.53015        3.28082        0.00816
H          0.52423        1.84775        1.06185
