36
1sa1msa1ma1tma_37.log	Energy: -1025816.1553057
S          1.35711        0.36999        0.33918
O          1.29720       -1.01606       -0.20506
O          1.56209        1.37882       -0.71519
O          0.19262        0.67398        1.20897
O          2.60370        0.40675        1.30916
H          3.43811        0.20405        0.74191
S         -2.11455       -1.86216       -0.11298
O         -3.15077       -2.81742       -0.44684
O         -2.38517       -0.43770       -0.32850
O         -0.82188       -2.28208       -0.91393
H         -0.01414       -1.71947       -0.67063
C         -1.62967       -2.06024        1.58817
H         -2.51165       -1.85029        2.19483
H         -1.30079       -3.08935        1.73069
H         -0.83442       -1.34204        1.79870
N          4.55603       -0.17914       -0.36539
H          4.18239        0.26197       -1.20250
C          4.60643       -1.63953       -0.53031
H          5.22068       -1.95783       -1.38054
H          5.00949       -2.08559        0.38163
H          3.58589       -2.00368       -0.66357
H          5.48143        0.20733       -0.20979
N         -1.41140        2.40536       -0.13008
C         -2.77748        2.49913        0.43874
H         -3.30896        1.57718        0.20725
H         -2.69591        2.61802        1.51981
H         -3.28372        3.36441        0.00471
C         -0.58045        3.58548        0.21917
H         -0.53659        3.67403        1.30486
H          0.42308        3.41694       -0.17203
H         -1.03032        4.47970       -0.21821
C         -1.43160        2.17398       -1.59961
H         -0.40081        2.03743       -1.92753
H         -2.00454        1.26850       -1.79346
H         -1.88713        3.04162       -2.08293
H         -0.93094        1.58491        0.32023
