30
1sa1msa1a1dma_127.log	Energy: -976476.2153380
S          2.70053       -0.17560       -0.50284
O          1.96312       -1.42304       -0.66981
O          3.87847        0.06576       -1.30153
O          1.72461        1.03703       -0.77278
O          3.04433       -0.06187        1.01970
H          0.83051        0.85452       -0.36896
H          3.80780        0.63474        1.14791
S         -1.33056       -0.84615        0.17768
O         -2.01948       -1.00116       -1.08875
O         -0.56697        0.39870        0.38395
O         -0.36010       -2.07364        0.45280
H          0.53068       -1.90467        0.04021
C         -2.46438       -1.03731        1.51668
H         -3.20357       -0.23216        1.38978
H         -2.92869       -2.01905        1.41983
H         -1.91373       -0.94729        2.45232
N          5.01434        1.64596        1.12064
H          5.74307        1.47113        1.80498
H          4.73408        2.61885        1.19576
H          5.40383        1.50209        0.19127
N         -4.46500        1.26058        0.38740
C         -5.28736        0.38881       -0.44333
C         -3.63587        2.16207       -0.40571
H         -5.06037        1.80393        1.00334
H         -4.63195       -0.26609       -1.02639
H         -5.92004       -0.23832        0.19170
H         -5.93432        0.93838       -1.14731
H         -2.95727        1.56920       -1.02542
H         -4.22258        2.81588       -1.07262
H         -3.02853        2.78533        0.25546
