35
1sa1msa1ma1eda_164.log	Energy: -1035886.6571711
S          1.27252       -1.73256       -0.05093
O          1.31447       -1.21220       -1.42107
O          2.22886       -1.18128        0.89898
O         -0.12318       -1.69989        0.51504
O          1.65298       -3.30433       -0.14909
H          1.28010       -3.65276       -0.97025
S         -2.84908        0.29148       -0.22981
O         -2.36568        1.33324       -1.12639
O         -2.63382        0.50125        1.20490
O         -2.30176       -1.11919       -0.65576
H         -1.39448       -1.34737       -0.23827
C         -4.57894        0.03163       -0.52817
H         -5.08320        0.97010       -0.29621
H         -4.70872       -0.22481       -1.57930
H         -4.92561       -0.77037        0.12230
N          0.09955        0.75389        1.91631
H          0.02542       -0.26034        1.74787
H          0.33769        1.17011        0.93191
C          1.12705        1.07479        2.92353
H          1.23399        2.15748        3.00030
H          0.84447        0.66275        3.89286
H          2.06444        0.62576        2.59597
H         -0.84357        1.06689        2.15300
H          1.70750        3.19057       -1.67956
H          1.51670        3.47680        0.06342
H          3.78989        2.84448       -0.37885
H          3.01920        1.52072        0.51218
H          4.39371        0.94519       -1.52614
H          2.89634        0.30868       -1.55261
H         -0.29118        2.11201       -0.90722
H          0.77186        0.93028       -1.21590
C          1.68769        2.70434       -0.69652
C          3.04220        2.04805       -0.45670
N          0.59652        1.72225       -0.59519
N          3.41070        1.18638       -1.57386
