32
1sa1msa1a1eda_168.log	Energy: -1011230.9853419
S          0.69424        1.84986       -0.08668
O          0.41683        1.15353       -1.33640
O         -0.33894        1.64544        0.96667
O          2.05212        1.64498        0.46150
O          0.61066        3.41756       -0.48801
H          0.81751        3.94620        0.29476
S         -2.62422       -0.80631       -0.22294
O         -3.92211       -1.42318       -0.04820
O         -1.43004       -1.51454        0.24840
O         -2.68931        0.61488        0.47509
H         -1.77677        1.01118        0.61756
C         -2.37767       -0.40471       -1.93693
H         -2.32388       -1.34830       -2.48152
H         -3.23398        0.18219       -2.26905
H         -1.44603        0.15890       -2.02343
N          0.04400       -0.86463        2.74759
H         -0.10717       -1.06317        3.73045
H         -0.67095       -1.34659        2.20174
H         -0.12045        0.12992        2.58886
H          1.60728       -2.75041        0.07895
H          0.82065       -1.24780       -0.42616
H          2.47939       -1.98044       -2.14949
H          2.93379       -0.43706       -1.42676
H          4.19404       -3.02404       -0.89145
H          4.89597       -1.58316       -1.20772
H          1.51784       -1.12112        1.87749
H          3.16115       -1.41423        1.34709
C          1.77566       -1.69333       -0.14527
C          2.83133       -1.50744       -1.22412
N          2.24458       -1.03567        1.10147
N          4.11422       -2.02431       -0.73883
H          2.34213       -0.01307        0.92658
