38
1sa1msa1dma1eda_12.log	Energy: -1060565.4757287
S         -2.48680       -0.85882        0.00890
O         -2.37537       -2.19311        0.59937
O         -2.98170        0.19480        0.89555
O         -1.25470       -0.46883       -0.74175
O         -3.56032       -0.97045       -1.21721
H         -4.40380       -1.26041       -0.84415
S          2.93301        0.37629       -0.08408
O          2.58442        1.40131       -1.10641
O          3.06661       -0.99501       -0.65185
O          2.00436        0.41316        1.07192
C          4.55520        0.81068        0.51530
H          5.24458        0.80034       -0.32902
H          4.49881        1.80625        0.95566
H          4.85074        0.07459        1.26296
N          0.74157       -2.29848       -0.00919
C          0.73024       -2.50246        1.45827
C          0.41533       -3.50955       -0.78960
H          0.04230       -1.56912       -0.24982
H          1.45819       -3.27525        1.71131
H          1.01269       -1.55768        1.92298
H         -0.27517       -2.79898        1.75831
H          1.13664       -4.29347       -0.55385
H         -0.59607       -3.82550       -0.53037
H          0.46773       -3.26722       -1.85110
H          1.66858       -1.90270       -0.29420
H         -0.20149        4.03862       -0.62974
H         -0.91357        3.04970       -1.92649
H         -2.63056        4.11149       -0.33833
H         -2.76200        2.35850       -0.49773
H         -2.23010        3.76504        1.87241
H         -2.36825        2.13281        1.64151
H          0.96007        1.90686       -0.74874
H          0.06317        2.03305        0.65783
C         -0.78522        3.14032       -0.84583
C         -2.12949        3.16464       -0.11190
N         -0.00792        1.97933       -0.36456
N         -1.91180        2.98119        1.31986
H         -0.49742        1.08268       -0.56369
