38
1sa1msa1dma1eda_351.log	Energy: -1060535.0975372
S         -0.27676       -0.95828       -0.68176
O          0.42277        0.25983       -1.15242
O         -1.45806       -1.33133       -1.45002
O          0.73727       -2.17550       -0.84972
O         -0.57401       -0.85539        0.78702
H          1.61520       -1.91532       -0.47898
H         -2.03782       -1.35837        1.05437
S          3.62554        0.12621        0.10405
O          4.59100        0.32483       -0.95693
O          3.01923       -1.20510        0.24977
O          2.47657        1.20757        0.04521
H          1.65354        0.84521       -0.43184
C          4.36732        0.56081        1.65823
H          5.19662       -0.12957        1.81493
H          4.72986        1.58612        1.58674
H          3.61805        0.45691        2.44190
N         -3.06863       -1.61100        1.18836
C         -3.34597       -2.90319        0.51464
C         -3.87344       -0.47044        0.67541
H         -3.21354       -1.70434        2.19276
H         -3.10179       -2.77983       -0.54025
H         -2.70473       -3.67165        0.94704
H         -4.39733       -3.16381        0.64705
H         -3.69146       -0.37948       -0.39475
H         -4.93210       -0.64923        0.86864
H         -3.52738        0.43757        1.17065
H         -2.28443        1.27662       -1.15220
H         -2.34305        2.84060       -1.92882
H         -0.42341        2.75101       -0.42797
H         -1.60006        3.90903        0.22707
H         -1.07393        1.20628        1.20216
H         -1.07131        2.60579        2.03791
H         -3.84779        2.52379        0.51668
H         -4.20370        3.42862       -0.79208
C         -2.46939        2.34103       -0.96347
C         -1.41947        2.84629        0.02434
N         -3.84883        2.52452       -0.50072
N         -1.54146        2.10803        1.29011
