40
1sa1msa2eda_34.log	Energy: -1095296.4793072
S         -2.24011        1.49847       -0.36335
O         -1.31018        2.05398       -1.36811
O         -3.27084        0.61852       -0.91485
O         -1.53174        0.96371        0.82013
O         -3.02583        2.77819        0.27398
H         -3.63945        3.10846       -0.39599
S          2.22154       -1.67045       -0.36839
O          2.86913       -0.41902       -0.85535
O          1.07254       -2.09232       -1.19424
O          1.86997       -1.58852        1.08151
C          3.47279       -2.93337       -0.51529
H          3.74273       -3.01839       -1.56796
H          4.33430       -2.63693        0.08327
H          3.05315       -3.87064       -0.14930
H          0.73601        2.68287        1.13018
H          1.20711        0.97566        1.23236
H          2.98109        2.44310        2.23121
H          3.55940        1.52560        0.83186
H          2.90727        4.38381        0.85017
H          4.25427        3.64064        0.29107
H          0.36995        1.84174       -1.00368
H          1.86295        2.63328       -1.07619
C          1.46499        1.94100        0.79641
C          2.89454        2.33686        1.14253
N          1.36106        1.83027       -0.68121
N          3.25169        3.54518        0.39496
H          1.85218        0.95364       -0.97356
H         -1.68692       -3.55495        1.43701
H         -1.99315       -2.20200        2.55509
H         -4.04579       -2.88084        1.20476
H         -3.58529       -1.18768        1.00268
H         -3.66072       -3.14571       -1.03052
H         -3.31374       -1.52887       -1.14528
H          0.06915       -1.84413        1.20031
H         -0.84141       -1.99512       -0.16128
C         -1.95513       -2.49767        1.50399
C         -3.28019       -2.21730        0.78799
N         -0.89233       -1.72228        0.83091
N         -3.10918       -2.39052       -0.64860
H         -1.11124       -0.70386        0.85093
