32
1sa1msa1a1eda_165.log	Energy: -1011230.2090500
S          2.31440       -0.78202       -0.29578
O          1.70196       -1.96987       -0.89817
O          2.60089        0.34833       -1.17601
O          1.57330       -0.35915        0.93748
O          3.74371       -1.33183        0.23625
H          4.33633       -0.57403        0.33091
S         -0.64581        2.22979        0.03354
O         -1.54638        3.25751        0.50733
O         -1.23211        1.03467       -0.59303
O          0.24033        1.78175        1.26234
H          0.81339        0.96339        1.06040
C          0.53044        2.90687       -1.11072
H         -0.02693        3.20867       -1.99832
H          0.99821        3.76886       -0.63504
H          1.26502        2.13259       -1.34852
N         -0.70069       -1.12878        2.62952
H         -1.01360       -1.64387        3.44531
H         -0.98064       -0.15812        2.74655
H          0.31777       -1.13349        2.61069
H         -2.01873       -2.80686       -1.60092
H         -1.97662       -3.56065        0.01303
H         -4.20983       -2.72263       -0.40444
H         -3.47796       -1.74155        0.86712
H         -4.66265       -0.58416       -1.09946
H         -3.16376       -0.00011       -0.79285
H         -0.04305       -2.07388       -0.43789
H         -1.06611       -0.78748       -0.52631
C         -2.09557       -2.61879       -0.52834
C         -3.43807       -1.97167       -0.21080
N         -0.97379       -1.73520       -0.13167
N         -3.68050       -0.82811       -1.07765
H         -0.93784       -1.59617        0.91376
