30
1sa1msa2ma_08.log	Energy: -976506.9493650
S         -2.58246        0.00596       -0.16765
O         -2.55270        1.25463       -0.93140
O         -2.54169       -1.22809       -0.95479
O         -1.58002       -0.00081        0.94565
O         -3.98041       -0.00799        0.66684
H         -4.70688        0.00147        0.02882
S          2.68540       -0.00555        0.02236
O          2.64813       -1.26677        0.80808
O          2.64955        1.22186        0.85885
O          1.62642        0.01537       -1.03035
C          4.25721        0.01034       -0.81757
H          5.04184       -0.01336       -0.06128
H          4.31171       -0.86992       -1.45812
H          4.31937        0.92417       -1.40850
N          0.10034       -2.08173        0.16672
H          1.05329       -1.99998        0.58024
H         -0.51594       -1.38267        0.62959
C         -0.48694       -3.43615        0.21179
H         -1.46891       -3.39563       -0.25828
H          0.16505       -4.13069       -0.31760
H         -0.58335       -3.74284        1.25291
H          0.20713       -1.72815       -0.78812
N          0.11636        2.07862        0.19973
H          0.25750        1.69936       -0.74195
H         -0.51862        1.39306        0.65711
C         -0.45976        3.43838        0.19228
H         -0.57575        3.77796        1.22117
H          0.20933        4.11118       -0.34381
H         -1.43186        3.39144       -0.29720
H          1.05484        1.99873        0.64248
