38
1sa1msa1dma1eda_26.log	Energy: -1060563.7696058
S         -2.59199       -0.84673       -0.24550
O         -2.98816        0.49897       -0.71820
O         -2.17066       -1.75073       -1.33226
O         -1.66612       -0.80449        0.89314
O         -3.93737       -1.50736        0.38840
H         -4.57184       -1.63966       -0.32884
S          2.14509        1.14163       -0.38998
O          1.96471        0.63677        0.98925
O          1.25692        2.29826       -0.69581
O          2.04788        0.05948       -1.40824
C          3.80535        1.78104       -0.51613
H          3.91931        2.57484        0.22232
H          4.50134        0.96634       -0.31456
H          3.94637        2.16828       -1.52517
N         -1.23243        2.36154        0.34330
C         -1.77320        3.68130       -0.03643
C         -1.05308        2.17049        1.79985
H         -1.86696        1.62372       -0.03212
H         -1.08036        4.45862        0.28901
H         -1.88170        3.71623       -1.12036
H         -2.74685        3.82324        0.43524
H         -0.36741        2.93327        2.17175
H         -2.02261        2.25031        2.29370
H         -0.63346        1.17931        1.96200
H         -0.29458        2.24417       -0.11417
H          0.81449       -4.00905        0.07302
H          1.69485       -3.49674       -1.39281
H          3.17046       -3.75265        0.65342
H          3.23467       -2.14233       -0.07253
H          2.66724       -2.62074        2.53882
H          2.16905       -1.26408        1.73949
H         -0.36982       -2.18395       -1.02523
H          0.18997       -1.72345        0.43850
C          1.39041       -3.20241       -0.38561
C          2.59370       -2.83839        0.48496
N          0.50296       -2.02356       -0.49583
N          2.13326       -2.28202        1.75062
H          1.01509       -1.21526       -0.92053
