30
1sa1msa1a1dma_28.log	Energy: -976498.1947921
S         -1.65891       -1.30317       -0.05768
O         -1.88057       -0.44747       -1.22772
O         -0.49339       -2.22417       -0.17068
O         -1.67834       -0.58092        1.22242
O         -2.94475       -2.29072       -0.08288
H         -2.79758       -2.99084        0.56735
S          2.31637       -0.17986       -0.04622
O          3.04920        0.63446        0.91180
O          1.27471        0.46573       -0.84235
O          1.71376       -1.40222        0.73077
H          0.81397       -1.72604        0.34537
C          3.47758       -0.94199       -1.15714
H          3.97714       -0.14381       -1.70700
H          4.19349       -1.50994       -0.56334
H          2.92282       -1.59231       -1.83374
N          0.22780        1.61832        2.06209
H          0.00717        2.13659        2.90584
H          1.24054        1.52239        2.00695
H         -0.16816        0.68236        2.15907
N         -1.08484        2.09076       -0.36031
C         -2.44210        2.48861        0.06303
C         -0.41973        3.03846       -1.27305
H         -0.49756        1.95747        0.51769
H         -3.09115        2.56104       -0.81089
H         -2.81949        1.72036        0.73845
H         -2.39118        3.45209        0.57400
H         -1.01381        3.14867       -2.18208
H         -0.32088        4.00584       -0.77686
H          0.56363        2.63713       -1.51409
H         -1.15860        1.15594       -0.80450
