41
1sa1msa1tma1eda_153.log	Energy: -1085207.6805458
S         -0.20424       -1.34060       -0.32286
O         -1.40593       -2.20131       -0.32405
O          1.04442       -2.02056       -0.66364
O         -0.40777       -0.30147       -1.55987
O         -0.11638       -0.50150        0.89280
H         -1.26061        0.17488       -1.41552
H          2.87375        0.02434       -0.15454
S         -3.71592        0.37189        0.11877
O         -5.06940        0.87387        0.04859
O         -2.72869        0.88833       -0.84149
O         -3.78134       -1.20024        0.00403
H         -2.86507       -1.60602       -0.13326
C         -3.05889        0.63637        1.75056
H         -3.00559        1.71553        1.90121
H         -3.74373        0.18058        2.46555
H         -2.06369        0.18676        1.79107
H          0.20357        2.52613       -0.48750
H          1.27802        3.80884        0.06924
H          1.93925        2.98488       -2.13068
H          3.21663        2.74469       -0.92424
H          1.33306        0.60705       -1.68774
H          2.81676        0.78463       -2.33242
H          1.20536        2.52660        1.90939
H          0.98178        1.12924        1.10851
C          1.22126        2.73297       -0.12525
C          2.21803        2.41386       -1.23380
N          1.52365        1.99579        1.10599
N          2.27070        0.96839       -1.49550
N          3.58023       -0.48019        0.47634
C          4.59422        0.55034        0.79658
H          5.03604        0.91141       -0.13376
H          4.08116        1.37145        1.30042
H          5.36985        0.11596        1.43177
C          2.93712       -1.00220        1.70759
H          2.51313       -0.16291        2.25551
H          2.14563       -1.68969        1.41705
H          3.69806       -1.50770        2.30834
C          4.13447       -1.58120       -0.34725
H          3.31764       -2.25646       -0.60154
H          4.55972       -1.15691       -1.25807
H          4.91309       -2.09966        0.21735
