32
1sa1msa1a1eda_101.log	Energy: -1011236.1071119
S          2.77916       -0.53556       -0.02777
O          2.61803       -1.15617       -1.34800
O          3.12156        0.88430       -0.02458
O          1.62508       -0.85701        0.87328
O          3.98875       -1.32100        0.72372
H          4.81518       -1.09386        0.27597
S         -2.74457       -0.66491        0.19629
O         -2.67520       -2.13142        0.05863
O         -1.71669       -0.00377       -0.71348
O         -2.62038       -0.13653        1.56426
C         -4.32795       -0.14374       -0.43411
H         -4.37313        0.94447       -0.38625
H         -4.42551       -0.49456       -1.46143
H         -5.09701       -0.58797        0.19848
N         -0.02219       -2.15647       -0.89379
H          0.53891       -1.89893       -0.05442
H         -0.72664       -2.86328       -0.67437
H         -0.55719       -1.29736       -1.13971
H          0.63955       -2.41851       -1.62285
H         -0.21562        3.38786        1.29649
H          1.44426        2.70863        1.30865
H          1.03080        3.79839       -0.81238
H          1.16008        2.06703       -1.08634
H         -0.80961        3.42504       -2.10024
H         -1.21901        2.00657       -1.39255
H          0.63475        0.55300        1.15877
H         -0.56733        1.24518        2.08651
C          0.45199        2.64302        0.85979
C          0.52053        2.84512       -0.64831
N         -0.09984        1.29341        1.18171
N         -0.82211        2.92686       -1.21893
H         -0.81349        0.98581        0.49158
