32
1sa1msa1a1eda_334.log	Energy: -1011209.5474535
S         -2.00438       -0.26625        0.21232
O         -0.98865       -0.40165        1.25012
O         -2.48308        1.05731       -0.14214
O         -1.49833       -0.99012       -1.09637
O         -3.21780       -1.14936        0.62503
H         -0.52505       -1.19537       -1.04590
H         -4.11267       -0.71300        0.30131
S          2.17178       -1.23726       -0.16134
O          3.11153       -0.33925       -0.80533
O          1.03675       -1.74938       -0.94013
O          1.64207       -0.61124        1.18961
H          0.67195       -0.38392        1.12858
C          3.07101       -2.63243        0.46809
H          3.53013       -3.12753       -0.38796
H          3.83352       -2.26221        1.15328
H          2.37094       -3.29422        0.97657
N         -5.35189        0.07978       -0.19251
H         -6.08286        0.20141        0.50096
H         -5.77415       -0.28289       -1.04132
H         -4.94854        0.99122       -0.39976
H          0.50892        3.61941       -0.91301
H         -0.50592        2.77375        0.27675
H          1.51917        3.77784        1.26770
H          1.45419        2.02440        1.50658
H          3.62683        3.05993        0.69264
H          3.10396        1.78874       -0.18398
H         -0.31299        1.43160       -1.62434
H          1.31454        1.46488       -1.60325
C          0.44973        2.73815       -0.25589
C          1.58877        2.81400        0.75147
N          0.49140        1.47821       -1.00608
N          2.88516        2.74675        0.07733
