33
1sa1msa1ma1dma_63.log	Energy: -1001155.8486727
S          0.95464       -1.63540        0.28638
O         -0.14406       -2.44828        0.79782
O          0.49666       -0.65674       -0.75938
O          1.83953       -0.98975        1.25394
O          1.95044       -2.64882       -0.51143
H          1.40875       -3.32792       -0.93516
S         -2.74391        0.26819       -0.25110
O         -3.94793        0.87998       -0.77141
O         -1.78478        1.09824        0.48383
O         -1.98968       -0.40476       -1.47359
H         -1.02945       -0.58086       -1.23174
C         -3.16808       -1.12184        0.77239
H         -3.67526       -0.72921        1.65447
H         -3.83405       -1.76512        0.19739
H         -2.24617       -1.64397        1.03941
N          3.56247        1.04562       -0.10227
H          4.42673        1.49426        0.18263
C          3.61145        0.66668       -1.52186
H          4.43092       -0.02062       -1.76096
H          2.66927        0.17884       -1.78383
H          3.71973        1.56577       -2.13482
H          3.43943        0.21087        0.47165
N          0.96641        1.90890        0.41213
C          0.77058        2.08390        1.86679
C          0.51762        3.05225       -0.40536
H          1.99303        1.69718        0.22473
H         -0.28948        2.24137        2.06399
H          1.11168        1.17369        2.36059
H          1.35671        2.94181        2.20247
H         -0.55086        3.20090       -0.24831
H          1.07684        3.94368       -0.11492
H          0.70443        2.82610       -1.45582
H          0.46314        1.06196        0.10483
