38
1sa1msa1dma1eda_168.log	Energy: -1060549.4722041
S         -0.82375        1.93312        0.03143
O         -2.15236        1.34469       -0.06235
O         -0.13445        1.83218        1.32509
O          0.05957        1.49415       -1.09933
O         -1.07947        3.51709       -0.21863
H         -0.29673        4.00035        0.07812
S          2.65719       -0.42236       -0.05590
O          3.95259       -0.99736       -0.34858
O          1.44929       -1.19253       -0.37031
O          2.56843        0.97090       -0.80056
H          1.60189        1.24618       -0.90387
C          2.58127        0.03313        1.66141
H          2.59802       -0.89111        2.24071
H          3.45605        0.64386        1.88463
H          1.65557        0.59041        1.82272
N         -1.12368       -1.06745       -1.78849
C         -0.52731       -2.30695       -2.32435
C         -2.03130       -0.38029       -2.73133
H         -1.67961       -1.30546       -0.89614
H          0.01521       -2.08550       -3.24504
H          0.16724       -2.70595       -1.58745
H         -1.32684       -3.02145       -2.53094
H         -1.47322       -0.07558       -3.61805
H         -2.83027       -1.06830       -3.01523
H         -2.44427        0.49341       -2.22846
H         -0.38561       -0.40839       -1.49834
H         -2.47015       -2.92328        2.22385
H         -1.27974       -3.29377        0.95997
H         -0.17672       -2.11466        2.79871
H         -0.18172       -1.10291        1.35813
H         -1.64172       -0.61633        3.80374
H         -1.11964        0.45015        2.64579
H         -3.46953       -2.19095        0.25393
H         -2.82863       -0.81862        0.87998
C         -1.81828       -2.47938        1.45887
C         -0.82673       -1.53097        2.13183
N         -2.59263       -1.72322        0.46157
N         -1.54072       -0.45796        2.81028
