30
1sa1msa1a1dma_109.log	Energy: -976487.3574589
S         -0.83742        1.51677        0.15905
O         -0.08455        2.72270       -0.14883
O         -2.30748        1.67352        0.25451
O         -0.73790        0.52517       -1.15355
O         -0.26981        0.71085        1.26605
H          0.17222        0.17585       -1.20975
H         -0.46292       -1.25697        1.08676
S          2.94692       -0.45073       -0.22400
O          1.75422       -0.74447       -1.00737
O          4.25869       -0.59372       -0.82889
O          2.89551       -1.46448        1.04602
H          3.78140       -1.83706        1.16193
C          2.77106        1.12667        0.55911
H          2.65015        1.86942       -0.23151
H          1.86690        1.09814        1.17327
H          3.67364        1.31263        1.14093
N         -0.82867       -2.11582        0.66218
H         -0.74844       -2.86456        1.34236
H         -0.19566       -2.33344       -0.10298
H         -2.34896       -1.40692        0.16024
N         -3.21955       -0.84611       -0.08167
C         -4.30681       -1.21946        0.83923
C         -3.53170       -1.03072       -1.51214
H         -2.94719        0.16112        0.07752
H         -4.54741       -2.27685        0.71151
H         -3.97609       -1.03750        1.86222
H         -5.18951       -0.61255        0.63051
H         -3.72160       -2.08769       -1.71003
H         -4.41204       -0.44018       -1.77206
H         -2.67342       -0.68213       -2.08616
