39
1sa1msa1dma1tma_117.log	Energy: -1050465.1614783
S          0.09857       -0.06157       -1.05648
O         -1.13677        0.09309       -1.84964
O          1.31458        0.44913       -1.68091
O         -0.07073        0.85911        0.25543
O          0.25675       -1.45715       -0.54740
H         -0.96010        0.69663        0.65298
H          1.71143       -1.65111       -0.01341
S         -3.77629        0.23305        0.34312
O         -4.44740        1.50100        0.14061
O         -2.55019        0.22771        1.15745
O         -3.48688       -0.49582       -1.02340
H         -2.55355       -0.28423       -1.37093
C         -4.91692       -0.92673        1.05564
H         -5.22583       -0.51667        2.01754
H         -5.77074       -1.01412        0.38394
H         -4.41108       -1.88330        1.17954
N          3.06111        1.93508        0.32729
C          4.22597        2.52031       -0.31636
C          2.49518        2.79922        1.35274
H          2.35083        1.73437       -0.37396
H          5.04107        2.61518        0.41063
H          4.56902        1.87009       -1.12717
H          4.03671        3.52052       -0.74159
H          3.20548        2.90121        2.18212
H          2.25887        3.81179        0.98527
H          1.57362        2.35210        1.73306
N          2.66784       -1.87121        0.41135
C          2.76648       -1.09198        1.67289
H          2.83007       -0.02961        1.41124
H          1.87705       -1.29148        2.27177
H          3.66550       -1.40187        2.21239
C          2.67236       -3.33110        0.65020
H          1.85909       -3.57789        1.33338
H          2.51510       -3.84436       -0.29896
H          3.62998       -3.62735        1.08482
C          3.70335       -1.45671       -0.56671
H          3.53952       -1.99285       -1.50166
H          3.59429       -0.38652       -0.73571
H          4.69128       -1.68578       -0.15956
