36
1sa1msa2dma_171.log	Energy: -1025803.7758930
S         -1.22358        0.19421       -0.48061
O         -1.40050       -1.17806        0.02381
O         -0.12821        0.35138       -1.45304
O         -2.55005        0.59179       -1.25572
O         -1.07778        1.18695        0.63889
H         -3.36505        0.28351       -0.70970
H          0.34249        1.83339        0.42573
S          2.81603       -1.15749        0.16059
O          2.98932        0.01829       -0.69671
O          2.58569       -0.95093        1.57429
O          4.18052       -2.02365       -0.01648
H          4.79702       -1.50194       -0.54975
C          1.62500       -2.28662       -0.49737
H          1.81025       -2.38983       -1.56581
H          1.75550       -3.23185        0.03029
H          0.62846       -1.87004       -0.31443
N         -4.57635       -0.29941        0.19094
C         -4.23358       -0.07165        1.59808
C         -4.69518       -1.72233       -0.13599
H         -5.44771        0.17491       -0.02632
H         -3.26392       -0.53441        1.79600
H         -4.13644        1.00071        1.77983
H         -4.98175       -0.49396        2.28458
H         -3.71323       -2.18464       -0.00706
H         -5.42712       -2.24037        0.50066
H         -4.98999       -1.83161       -1.18244
N          1.29374        2.21927        0.12553
C          2.10228        2.56991        1.30787
C          1.05266        3.32127       -0.82637
H          1.73772        1.43630       -0.37584
H          1.57592        3.33098        1.88602
H          2.23782        1.67112        1.91039
H          3.07463        2.95014        0.98896
H          0.51585        4.12198       -0.31527
H          2.00472        3.69479       -1.20871
H          0.44483        2.92491       -1.63991
