40
1sa1msa2eda_70.log	Energy: -1095295.6886139
S          2.52111        0.01419       -0.49966
O          1.75265       -0.69540       -1.54061
O          3.05019        1.31396       -0.90592
O          1.80998        0.00736        0.80329
O          3.81347       -0.92660       -0.16563
H          4.46848       -0.78823       -0.86313
S         -3.11221        0.01667       -0.29256
O         -2.93387       -1.19271       -1.14197
O         -2.79889        1.29082       -0.96160
O         -2.35694       -0.12372        0.99978
C         -4.84185        0.04869        0.14100
H         -5.41471        0.13478       -0.78260
H         -5.08327       -0.87870        0.66019
H         -5.01796        0.91101        0.78422
H         -0.83980       -3.96693        0.23251
H          0.15270       -3.82563       -1.24165
H          1.47056       -4.53057        0.81834
H          2.08492       -3.06310        0.05975
H          1.24539       -3.28975        2.68789
H          1.53885       -1.87615        1.88494
H         -1.37928       -1.87041       -0.82232
H         -0.54124       -1.61588        0.57359
C         -0.02015       -3.42243       -0.24159
C          1.24153       -3.47849        0.62338
N         -0.44654       -2.01134       -0.37109
N          1.01676       -2.74715        1.86706
H          0.27483       -1.46234       -0.87904
H         -0.90369        3.67175        1.33258
H          0.11351        2.78715        2.49678
H          1.39707        4.57353        1.19618
H          2.06256        2.94657        1.03096
H          0.91394        4.51619       -1.05864
H          1.79641        3.11187       -1.14035
H         -1.23604        1.23573        1.06474
H         -0.52438        1.95859       -0.25229
C         -0.04850        2.99993        1.43792
C          1.20671        3.57985        0.77511
N         -0.38354        1.73900        0.74305
N          1.03458        3.59086       -0.67147
H          0.41098        1.07208        0.80649
