30
1sa1msa2ma_113.log	Energy: -976488.9028327
S          0.59336       -0.30833       -0.14875
O         -0.36298       -1.35161        0.28075
O          1.89658       -0.81949       -0.58393
O         -0.01169        0.36694       -1.46718
O          0.72403        0.77690        0.86407
H         -0.96389        0.57571       -1.31056
H          2.25986        1.31008        0.90898
S         -3.53641       -0.04805       -0.06342
O         -4.38400       -0.91995       -0.85126
O         -2.59659        0.83028       -0.77631
O         -2.75299       -0.85372        1.04128
H         -1.79540       -1.05485        0.75711
C         -4.55468        0.97206        0.97487
H         -5.17542        1.57837        0.31460
H         -5.17313        0.31912        1.59057
H         -3.90720        1.59743        1.58825
N          3.28587        1.53678        0.76893
H          3.58467        2.20744        1.47264
C          3.48361        2.04895       -0.60677
H          4.54502        2.22427       -0.78647
H          3.10426        1.29223       -1.29392
H          2.92240        2.97367       -0.74071
H          3.81161        0.60941        0.89758
N          4.39205       -0.99547        0.82919
H          4.75168       -1.44568        1.66475
C          5.28295       -1.23308       -0.31385
H          5.47589       -2.29569       -0.49944
H          4.81739       -0.81585       -1.20975
H          6.23954       -0.72867       -0.15153
H          3.47588       -1.39659        0.62108
