38
1sa1msa1dma1eda_72.log	Energy: -1060562.3363051
S          2.68155       -0.71631       -0.09068
O          3.15024        0.65600        0.13213
O          2.65038       -1.57785        1.08961
O          1.41128       -0.76887       -0.87791
O          3.72168       -1.39195       -1.14910
H          4.59594       -1.40368       -0.73645
S         -2.99479        0.32853       -0.14089
O         -3.34374       -0.77309       -1.04841
O         -2.57579        1.58770       -0.81742
O         -1.96989       -0.08346        0.88006
C         -4.46111        0.74559        0.78613
H         -5.21641        1.08867        0.07870
H         -4.80219       -0.14939        1.30676
H         -4.20906        1.53413        1.49501
N         -0.57956       -2.32250        0.25335
C         -1.27187       -3.15483       -0.75463
C         -0.14767       -3.05556        1.46218
H          0.24491       -1.86313       -0.18647
H         -2.13096       -3.63787       -0.28763
H         -1.63017       -2.50568       -1.55269
H         -0.57656       -3.90402       -1.13665
H         -1.02878       -3.45526        1.96665
H          0.52317       -3.86486        1.17176
H          0.39334       -2.36953        2.11210
H         -1.19950       -1.51804        0.52931
H          1.92400        2.27417       -1.27171
H          0.51072        3.23353       -1.77720
H          2.11559        4.40653       -0.15575
H          0.43220        4.36458        0.39225
H          2.45546        2.41906        1.29033
H          1.71634        3.58597        2.21096
H          0.44660        0.74724       -0.71770
H          0.23938        1.68231        0.62714
C          1.00255        2.74969       -0.93232
C          1.31160        3.74283        0.19072
N          0.12433        1.67706       -0.39902
N          1.61906        2.98936        1.39992
H         -0.89320        1.77808       -0.61746
