36
1sa1msa1ma1tma_95.log	Energy: -1025809.8575265
S         -0.35983       -1.32682       -0.58598
O          0.44253       -0.66268       -1.63828
O         -1.61437       -1.91497       -1.03808
O          0.50855       -2.53760       -0.02552
O         -0.56281       -0.39015        0.57491
H          1.41677       -2.20083        0.16295
H         -2.14886        0.01085        0.61298
S          3.14043        0.18849        0.39178
O          4.50833        0.65318        0.41352
O          2.87838       -1.25478        0.43367
O          2.43299        0.80504       -0.88119
H          1.67125        0.22188       -1.20417
C          2.24715        0.93486        1.73842
H          2.70166        0.57470        2.66221
H          2.35199        2.01665        1.65429
H          1.20555        0.61591        1.66284
N         -0.93296        2.49905       -0.33537
H         -0.55037        3.31832        0.12644
C         -0.65453        2.57036       -1.77546
H          0.40708        2.70842       -2.01540
H         -0.97528        1.63876       -2.24871
H         -1.22196        3.39451       -2.21806
H         -0.45443        1.68794        0.05216
N         -3.18969        0.18158        0.67667
C         -3.65812        0.56120       -0.68187
H         -3.14538        1.48283       -0.95971
H         -3.39206       -0.24276       -1.36832
H         -4.74022        0.70979       -0.65371
C         -3.78853       -1.09738        1.13332
H         -3.53038       -1.86851        0.40758
H         -3.36149       -1.35460        2.10317
H         -4.87082       -0.97672        1.21725
C         -3.38824        1.28207        1.64909
H         -2.95532        0.98714        2.60594
H         -2.87594        2.16320        1.25879
H         -4.45793        1.47033        1.76635
