36
1sa1msa2dma_31.log	Energy: -1025824.3815093
S         -0.02953       -1.91843       -0.40533
O         -0.34645       -0.93792       -1.63653
O          0.07303       -1.05880        0.79211
O         -1.20210       -2.80585       -0.39131
O          1.26900       -2.58303       -0.69034
H          2.34581       -1.64706        0.13133
S          0.08174        2.19025       -0.08504
O          0.89263        2.18875        1.14027
O         -1.34670        1.80915        0.10798
O          0.71170        1.41498       -1.20438
H          0.09840       -0.04925       -1.50444
C          0.03093        3.87775       -0.66982
H         -0.43990        4.48745        0.10169
H          1.05571        4.20596       -0.84512
H         -0.54640        3.90605       -1.59402
N         -2.73577       -0.48283        0.36178
C         -2.96804       -0.56600        1.81854
C         -3.91922       -0.12008       -0.44056
H         -2.00028        0.25086        0.20808
H         -3.71839       -1.33084        2.02575
H         -2.01786       -0.82555        2.28435
H         -3.30580        0.40695        2.17774
H         -4.70375       -0.86446       -0.29383
H         -4.26839        0.86525       -0.12957
H         -3.62503       -0.08993       -1.48952
H         -2.34868       -1.38828        0.03468
N          3.14516       -1.05005        0.49078
C          2.79427       -0.40015        1.78247
C          3.49644       -0.08335       -0.58161
H          3.91831       -1.69886        0.63293
H          2.00797        0.33500        1.60008
H          2.42915       -1.16484        2.46685
H          3.68753        0.08464        2.18205
H          2.62788        0.55572       -0.76027
H          4.34994        0.51615       -0.26031
H          3.73755       -0.64109       -1.48693
