30
1sa1msa2ma_143.log	Energy: -976474.6519986
S         -1.39070        0.25286       -0.00695
O         -2.46867        1.15820       -0.44258
O         -0.15767        0.94356        0.41737
O         -1.87015       -0.73007        1.00471
O         -1.03484       -0.57596       -1.32433
H         -3.53112       -0.66493        1.03994
H         -0.17215       -1.04327       -1.19428
S          2.50113       -1.10552       -0.12467
O          3.38325       -0.33679       -0.97859
O          1.32998       -1.74580       -0.74376
O          2.02176       -0.26147        1.12259
H          1.16719        0.23105        0.90739
C          3.42994       -2.36054        0.71887
H          3.82988       -3.02468       -0.04786
H          4.23780       -1.87421        1.26536
H          2.76084       -2.89637        1.39068
N          0.93947        3.85029       -0.01186
H          0.21631        3.14253        0.07459
C          2.25020        3.21740        0.11585
H          2.45820        2.42549       -0.61885
H          3.03291        3.97772        0.02840
H          2.33927        2.77496        1.11234
H          0.83749        4.26530       -0.93168
N         -4.43768       -0.29874        0.63307
H         -5.11311       -0.08060        1.36124
C         -4.95968       -1.23363       -0.39145
H         -5.83648       -0.80101       -0.87200
H         -4.17173       -1.38897       -1.12841
H         -5.21434       -2.18155        0.08095
H         -4.07252        0.56766        0.18676
