27
1sa1msa1a1ma_83.log	Energy: -951834.3329917
S         -1.30895       -1.22212        0.03533
O         -1.07271       -0.45088       -1.20536
O         -0.75976       -0.46636        1.21637
O         -2.67836       -1.65765        0.25384
O         -0.42656       -2.55156       -0.09239
H          0.46170       -2.28384       -0.41159
S          2.25063        0.09031       -0.12952
O          1.80293        1.24509       -0.90370
O          2.02934       -1.24103       -0.69695
O          1.65821        0.15258        1.32439
H          0.65494       -0.14058        1.31128
C          3.97901        0.27019        0.23059
H          4.50275        0.23819       -0.72522
H          4.13168        1.22982        0.72343
H          4.28545       -0.55722        0.86958
N         -3.83548        1.23878       -0.02043
H         -4.54997        1.30731       -0.73907
H         -3.62668        0.24188        0.09181
H         -2.27152        1.96147       -0.46460
H         -4.25720        1.54986        0.84954
N         -1.24209        2.16859       -0.62679
H         -0.84967        1.23406       -0.88543
C         -0.62396        2.71884        0.60095
H          0.44459        2.84601        0.43544
H         -1.09736        3.66994        0.84752
H         -0.78491        1.99578        1.39977
H         -1.12282        2.78899       -1.42391
