30
1sa1msa1a1dma_05.log	Energy: -976507.8157924
S         -2.55155       -0.41276       -0.14951
O         -2.34900        0.78970       -0.98599
O         -2.32031       -1.67687       -0.87768
O         -1.85829       -0.34498        1.14513
O         -4.12193       -0.40913        0.26252
H         -4.64733       -0.45549       -0.54793
S          2.57384       -0.41557       -0.14894
O          2.63732        0.53184       -1.26745
O          2.34277       -1.83738       -0.53865
O          1.57659        0.00017        0.89661
C          4.16606       -0.39516        0.65610
H          4.37096        0.62494        0.98121
H          4.13509       -1.07497        1.50749
H          4.91025       -0.72213       -0.07042
N         -0.05134       -2.49270        0.48294
H         -0.83840       -2.43386       -0.19370
H         -0.19503       -1.69928        1.12053
H         -0.08435       -3.36886        0.99519
H          0.88596       -2.35259        0.01425
N         -0.08877        2.00996        0.06731
C          0.60952        2.92836       -0.85679
C         -0.60717        2.64669        1.29692
H         -0.89162        1.56289       -0.42308
H          1.43233        3.41036       -0.32690
H          1.01651        2.34439       -1.68123
H         -0.09728        3.67797       -1.21649
H          0.22856        3.05986        1.86365
H         -1.30500        3.43978        1.02359
H         -1.12225        1.88109        1.87708
H          0.55809        1.23234        0.34704
