36
1sa1msa2dma_166.log	Energy: -1025806.9812114
S          0.15571        1.34394        0.29172
O          1.27990        1.29507        1.25292
O         -0.74574        2.48215        0.44583
O          0.80160        1.54145       -1.16305
O         -0.58362        0.04543        0.24335
H          1.53720        0.89446       -1.27582
H         -2.11912        0.46494       -0.05220
S          3.75739       -0.63251       -0.15342
O          5.00918        0.09634       -0.18913
O          2.76428       -0.35150       -1.20128
O          3.06488       -0.52103        1.25595
H          2.33939        0.19979        1.26816
C          4.10063       -2.37586       -0.18191
H          4.60540       -2.58357       -1.12577
H          4.75142       -2.60818        0.66091
H          3.15708       -2.91579       -0.11420
N         -3.12455        0.71889       -0.26602
C         -3.14171        1.55802       -1.48203
C         -3.70220        1.37621        0.92355
H         -3.59568       -0.20642       -0.43412
H         -2.56870        2.46436       -1.28271
H         -2.66701        1.00668       -2.29440
H         -4.17360        1.79986       -1.74522
H         -3.10871        2.26276        1.15025
H         -4.74318        1.64175        0.72744
H         -3.64850        0.68247        1.76376
N         -3.98952       -1.96933       -0.41293
C         -5.34501       -2.30282        0.02177
C         -2.96001       -2.45957        0.51058
H         -3.82573       -2.37300       -1.33040
H         -5.55404       -1.79217        0.96706
H         -6.06836       -1.95613       -0.72023
H         -5.49114       -3.38109        0.18098
H         -3.09633       -1.97870        1.48444
H         -3.00747       -3.54740        0.65893
H         -1.96817       -2.18367        0.14467
