33
1sa1msa1ma1dma_76.log	Energy: -1001154.7662503
S          0.73379        1.74244        0.05533
O          2.13050        2.09368        0.31908
O          0.48668        0.92516       -1.13693
O          0.05559        1.18964        1.26348
O         -0.04759        3.12907       -0.28747
H          0.15842        3.77263        0.40431
S         -2.75273       -0.53575       -0.02069
O         -4.07601       -1.06788        0.22170
O         -1.63406       -1.47509       -0.16625
O         -2.43029        0.47248        1.15124
H         -1.45595        0.74345        1.17737
C         -2.77950        0.49895       -1.46731
H         -3.53213        1.27208       -1.31340
H         -1.78310        0.92347       -1.60747
H         -3.05162       -0.14006       -2.30853
N          3.47726       -0.40939       -0.59366
H          3.56166       -0.29963       -1.60007
C          4.72239       -0.93107       -0.02282
H          5.59463       -0.29688       -0.22119
H          4.60825       -1.02160        1.06046
H          4.92354       -1.92819       -0.42452
H          3.27089        0.52528       -0.23262
N          1.10051       -1.73046        0.01360
C          1.00793       -2.99334       -0.74314
C          1.01805       -1.90215        1.48018
H          2.01173       -1.22910       -0.23768
H          0.03601       -3.45088       -0.55589
H          1.10813       -2.77293       -1.80633
H          1.81169       -3.66135       -0.42766
H          0.06726       -2.37628        1.72582
H          1.85324       -2.52152        1.81313
H          1.06034       -0.91530        1.94167
H          0.32375       -1.12200       -0.28142
