39
1sa1msa1dma1tma_37.log	Energy: -1050479.6352414
S         -2.25292        1.26849       -0.02822
O         -0.83230        1.60969        0.01659
O         -2.59103        0.38701        1.23829
O         -3.23162        2.31576       -0.10558
O         -2.48732        0.28972       -1.24432
H         -1.78995       -0.43423       -1.25107
S         -0.18717       -2.16663        0.12569
O          1.25378       -2.00263        0.38651
O         -0.61036       -1.52963       -1.16373
O         -1.04679       -1.72598        1.25959
H         -1.99876       -0.42447        1.27670
C         -0.49441       -3.90937       -0.07489
H          0.10335       -4.26320       -0.91492
H         -0.20206       -4.41008        0.84817
H         -1.55789       -4.04768       -0.26954
N          1.56265        0.51224       -1.53848
C          2.62878       -0.32331       -2.08798
C          1.34148        1.73098       -2.31508
H          0.70543       -0.04188       -1.53289
H          3.58588        0.20804       -2.02580
H          2.69121       -1.24398       -1.50399
H          2.45599       -0.58017       -3.14324
H          2.23843        2.36042       -2.27689
H          1.12626        1.52018       -3.37271
H          0.50229        2.27973       -1.88457
N          2.03009        1.04283        1.11050
C          1.11293        0.63907        2.20569
H          0.14640        1.10922        2.03750
H          1.00079       -0.44320        2.18612
H          1.54364        0.96860        3.15555
C          3.34515        0.37683        1.24873
H          3.18033       -0.70061        1.21615
H          3.98284        0.67658        0.41574
H          3.80716        0.66956        2.19485
C          2.15311        2.51586        1.03025
H          2.80246        2.77074        0.19126
H          1.15931        2.93245        0.86318
H          2.57880        2.90112        1.96015
H          1.67335        0.74570        0.12729
