30
1sa1msa1a1dma_114.log	Energy: -976481.6953468
S          1.99911       -0.21753       -0.42202
O          2.77222       -1.04560       -1.34571
O          0.53291       -0.28095       -0.54386
O          2.28546       -0.76077        1.06213
O          2.44963        1.21721       -0.41813
H          3.24238       -1.06800        1.10365
H          1.26738        2.10776       -0.10071
S         -2.87846       -0.63826        0.08498
O         -2.48609       -0.11524        1.37704
O         -2.95297        0.24914       -1.06854
O         -4.36709       -1.27978        0.26344
H         -4.92706       -0.92085       -0.43925
C         -1.92280       -2.07873       -0.29580
H         -0.89070       -1.73011       -0.41436
H         -2.01738       -2.77391        0.53835
H         -2.30816       -2.50878       -1.21996
N          4.83806       -1.61697        0.74028
H          5.58711       -0.94490        0.86466
H          4.65136       -1.70713       -0.25787
H          5.14727       -2.51322        1.09901
N          0.39997        2.70372        0.16778
C         -0.12453        2.18555        1.45620
C         -0.58254        2.65198       -0.94261
H          0.72985        3.65938        0.29217
H         -0.43175        1.15142        1.30578
H          0.67326        2.22789        2.19793
H         -0.98026        2.78397        1.77333
H         -0.83900        1.60774       -1.11603
H         -1.47504        3.21879       -0.67178
H         -0.11912        3.07061       -1.83639
