26
1sa1msa1dma_62.log	Energy: -940985.6471082
S          1.59897       -1.35876        0.07141
O          0.96614       -2.66803        0.04682
O          3.04990       -1.26293        0.10042
O          1.24290       -0.63991       -1.38831
O          0.93432       -0.43075        1.05662
H          0.27473       -0.64082       -1.49296
H          1.20992        1.05863        0.55117
S         -2.45429        0.00991       -0.14017
O         -1.40294        0.28411       -1.10933
O         -3.84200       -0.03033       -0.56068
O         -2.32345        1.20563        0.96040
H         -3.21690        1.45976        1.23325
C         -2.03645       -1.42542        0.80870
H         -1.96496       -2.26073        0.11009
H         -1.06317       -1.24654        1.27247
H         -2.83067       -1.58950        1.53696
N          1.52640        1.85109       -0.09087
C          2.94900        2.14442        0.20058
C          0.60763        3.00425       -0.02905
H          1.46212        1.37948       -1.00171
H          3.02183        2.56245        1.20535
H          3.49965        1.20300        0.15012
H          3.33275        2.85894       -0.52958
H          0.64476        3.43008        0.97440
H          0.91179        3.75529       -0.76011
H         -0.40167        2.65220       -0.24207
