36
1sa1msa2dma_162.log	Energy: -1025808.3351697
S          0.97962       -1.78732       -0.59535
O         -0.14081       -1.31261       -1.44715
O          2.26031       -1.12971       -0.95030
O          0.69615       -1.78450        0.83643
O          1.14649       -3.35211       -0.96796
H          1.23196       -3.43035       -1.92813
S         -0.88238        2.07836       -0.51636
O         -0.52645        3.45200       -0.81409
O         -0.30440        1.47157        0.69748
O         -0.46823        1.21578       -1.76811
H         -0.38373        0.21945       -1.58757
C         -2.63780        1.88355       -0.41601
H         -2.98279        2.52087        0.39954
H         -3.06404        2.20579       -1.36610
H         -2.82278        0.82093       -0.19535
N          2.36903        0.87884        0.88895
C          2.84800        0.33419        2.17741
C          3.01723        2.13376        0.45355
H          2.47434        0.14371        0.15061
H          2.65127        1.05844        2.96926
H          2.31051       -0.59543        2.36562
H          3.91922        0.14028        2.10593
H          2.86612        2.90034        1.21478
H          4.08317        1.95713        0.30422
H          2.55777        2.45718       -0.48090
H          1.34229        1.04479        0.93451
N         -2.45289       -1.05981        0.81383
C         -2.97941       -2.29427        0.25387
C         -2.96608       -0.77309        2.14230
H         -1.43924       -1.12536        0.85715
H         -4.05685       -2.18916        0.07995
H         -2.49207       -2.48732       -0.70461
H         -2.82552       -3.16982        0.90761
H         -4.04713       -0.59536        2.08968
H         -2.79621       -1.58834        2.86673
H         -2.49102        0.13402        2.52799
