32
1sa1msa1a1eda_145.log	Energy: -1011229.9636122
S          2.28685       -0.04671       -0.35773
O          2.70646        0.39768        0.96164
O          2.06591       -1.51429       -0.49801
O          1.15754        0.71120       -0.94381
O          3.57368        0.26201       -1.29222
H          3.41969       -0.13539       -2.15997
S         -1.37527       -1.71585       -0.00281
O         -2.10466       -0.69995       -0.76209
O         -0.84164       -1.28271        1.28851
O         -0.25764       -2.37557       -0.86995
H          0.69166       -1.98089       -0.70382
C         -2.45030       -3.10955        0.23146
H         -3.31290       -2.75779        0.79796
H         -2.75608       -3.47437       -0.74895
H         -1.90536       -3.87525        0.78273
N          0.58534        0.84855        3.05536
H          0.18570       -0.07317        3.21155
H          0.77178        1.27356        3.95689
H          1.47550        0.69848        2.57535
H         -1.66138        3.50897        1.11558
H         -0.00754        3.55693        0.44410
H         -1.77517        4.18373       -1.23589
H         -0.81664        2.78559       -1.73611
H         -3.47488        2.77076       -1.71527
H         -2.65311        1.40311       -1.34480
H         -0.36973        1.49003        1.73165
H         -1.65844        1.12573        0.69146
C         -0.97855        3.05936        0.39107
C         -1.56889        3.13279       -1.01423
N         -0.77975        1.64335        0.76479
N         -2.81212        2.36768       -1.06617
H         -0.10330        1.20133        0.10596
