39
1sa1msa1dma1tma_96.log	Energy: -1050470.5075389
S         -0.02355        0.91339        1.29210
O          0.17349       -0.02358        0.10202
O         -0.89999        0.30938        2.28438
O          1.26745        1.44077        1.72058
O         -0.77173        2.18595        0.65374
H         -1.61283        1.87317        0.24439
S         -3.21672       -0.43207       -0.62536
O         -4.19364       -0.90196       -1.58138
O         -2.87944        0.99817       -0.60750
O         -1.88453       -1.25851       -0.85868
H         -1.08828       -0.77956       -0.46142
C         -3.70450       -0.89861        1.01891
H         -4.63108       -0.36650        1.23806
H         -3.86759       -1.97624        1.02717
H         -2.90889       -0.60435        1.70745
N          2.50132       -1.92359        0.23840
C          3.04254       -1.73280        1.57967
C          2.70477       -3.27599       -0.26074
H          1.50743       -1.71130        0.26564
H          4.13679       -1.80213        1.54848
H          2.76658       -0.74072        1.94787
H          2.68089       -2.48123        2.30308
H          3.77592       -3.45802       -0.40437
H          2.32147       -4.05445        0.41941
H          2.20911       -3.39443       -1.22888
N          2.37004        0.94503       -1.20200
C          1.76080        2.26590       -1.50550
H          0.79535        2.10479       -1.98483
H          1.60687        2.79716       -0.56665
H          2.42918        2.82348       -2.16487
C          3.62835        1.08562       -0.42711
H          3.39013        1.58297        0.51299
H          4.01098        0.08479       -0.23128
H          4.33855        1.67175       -1.01502
C          2.55664        0.11854       -2.41822
H          2.93469       -0.85355       -2.10067
H          1.59150       -0.00019       -2.91224
H          3.26252        0.61621       -3.08672
H          1.67116        0.43947       -0.60754
