29
1sa1msa1tma_43.log	Energy: -965630.5864421
S         -1.36904       -1.82179        0.07358
O         -2.79889       -1.94010        0.06871
O         -0.67371       -1.15384        1.16004
O         -0.70966       -3.28762        0.04054
O         -0.93785       -1.20132       -1.29990
H         -1.25462       -3.86938       -0.51008
H          0.02113       -0.91316       -1.27432
S          2.30376        0.25174       -0.07750
O          2.25347        1.69011       -0.20204
O          1.59181       -0.56257       -1.07822
O          1.83050       -0.21348        1.36524
H          0.89951       -0.55472        1.33870
C          3.99168       -0.28777       -0.03176
H          4.44270        0.00681       -0.97972
H          4.48162        0.21710        0.80088
H          4.00895       -1.36951        0.09421
N         -1.68597        2.92744        0.01458
C         -3.01091        2.33865        0.07676
H         -3.51674        2.65864        0.99272
H         -3.60716        2.67396       -0.77737
H         -2.98761        1.23132        0.06600
C         -1.01136        2.57321       -1.21998
H         -1.59702        2.92326       -2.07574
H         -0.02582        3.04398       -1.25595
H         -0.87108        1.48004       -1.32835
C         -0.89354        2.55470        1.17199
H          0.09616        3.01432        1.10963
H         -1.38373        2.90537        2.08550
H         -0.76057        1.45866        1.25749
