40
1sa1msa2eda_165.log	Energy: -1095284.6558742
S         -0.31766       -0.83046       -1.46438
O         -0.10339       -0.56233        0.03337
O          0.94060       -1.23272       -2.09699
O         -1.38763       -1.87969       -1.58442
O         -0.84426        0.47220       -2.03150
H         -2.37028       -1.99947       -0.53700
H         -0.01223        1.59329       -1.34915
S          3.22477       -0.11400        0.76272
O          4.23670       -0.11710        1.79949
O          2.78218        1.20619        0.26478
O          1.98710       -0.91595        1.27168
H          1.11807       -0.79054        0.67519
C          3.79060       -1.04380       -0.64095
H          4.64004       -0.50667       -1.06446
H          4.09609       -2.02668       -0.28178
H          2.96330       -1.12227       -1.35190
H         -1.52016        4.02346       -0.74415
H         -2.12222        3.76384        0.89072
H          0.20099        3.38428        1.05435
H         -0.49162        1.74851        1.01705
H          0.74841        3.12208       -1.26886
H          1.37051        1.84345       -0.38679
H         -3.42271        2.64054       -0.89407
H         -2.20082        1.56053       -1.06723
C         -1.69829        3.24909        0.02178
C         -0.35552        2.66847        0.44572
N         -2.63781        2.21510       -0.41168
N          0.49366        2.30419       -0.71884
H         -3.34156       -2.55265        2.28410
H         -1.66081       -2.45924        1.68342
H         -2.43696       -0.37285        2.96938
H         -1.79584       -0.10181        1.33980
H         -4.53191        0.27603        2.18353
H         -3.65648        0.96726        0.94166
H         -3.53516       -3.11678        0.04400
H         -3.89929       -1.47848        0.12097
C         -2.65971       -2.02645        1.60949
C         -2.63364       -0.52124        1.90175
N         -3.15615       -2.19029        0.22035
N         -3.87170        0.09874        1.43726
