40
1sa1msa2eda_97.log	Energy: -1095295.1667331
S          2.04240       -1.45483        0.62386
O          2.16294       -0.24775        1.46412
O          1.18047       -2.50351        1.16479
O          1.76396       -1.12405       -0.79691
O          3.54873       -2.07925        0.52586
H          3.78116       -2.43221        1.39532
S         -2.21956        1.57469        0.29762
O         -3.17253        1.09682       -0.71943
O         -1.43500        2.77423       -0.09756
O         -1.30244        0.48557        0.77097
C         -3.17367        2.05361        1.72699
H         -3.84300        2.86095        1.42891
H         -3.74273        1.18704        2.06435
H         -2.48529        2.38792        2.50306
H         -1.57197       -3.60302       -0.99474
H         -1.22701       -2.95749        0.63206
H         -3.74503       -3.26282        0.08016
H         -3.28682       -1.64375        0.61552
H         -4.49038       -2.25932       -1.80622
H         -3.82301       -0.80765       -1.37800
H          0.00672       -1.73023       -1.08674
H         -1.49104       -1.35822       -1.80337
C         -1.70282       -2.74830       -0.32686
C         -3.18009       -2.36887       -0.19963
N         -1.00361       -1.58973       -0.93146
N         -3.65357       -1.80753       -1.46485
H         -1.09184       -0.76029       -0.28812
H          2.10686        3.56188       -0.87628
H          2.49156        3.17188        0.82083
H          4.38920        2.66467       -0.80140
H          3.85468        1.25240        0.11777
H          3.89887        1.45932       -2.64507
H          3.12015        0.28348       -1.78191
H          0.25110        2.31976       -0.05318
H          1.17748        1.31695       -1.02154
C          2.34331        2.75612       -0.17785
C          3.56092        1.96394       -0.66136
N          1.17617        1.84541       -0.14039
N          3.22628        1.28558       -1.91168
H          1.28300        1.13924        0.61125
