32
1sa1msa1a1eda_295.log	Energy: -1011224.3148974
S          0.21169        1.14875       -0.49291
O          1.47673        1.78245       -0.89781
O         -0.04586       -0.14570       -1.16576
O          0.08910        1.02065        0.98679
O         -0.91344        2.16574       -0.97479
H          1.67717        1.53685        1.78364
H         -1.79329        1.73245       -0.85564
S         -3.26155       -0.62488        0.09288
O         -4.51627       -1.33683        0.01333
O         -3.16334        0.70819       -0.51476
O         -2.13985       -1.55466       -0.52380
H         -1.32984       -1.01875       -0.79474
C         -2.76879       -0.47416        1.79567
H         -3.51633        0.14826        2.28931
H         -2.75089       -1.47294        2.23163
H         -1.78487        0.00009        1.82166
N          2.67360        1.69874        1.54672
H          2.60344        2.02556        0.56721
H          3.18317        0.73891        1.55541
H          3.10997        2.38678        2.15186
H          2.87287       -2.64559        0.70344
H          1.75794       -1.26951        0.77476
H          2.41039       -1.76021       -1.55151
H          2.93492       -0.15657       -1.07355
H          4.67023       -2.50217       -1.32871
H          4.84381       -1.02423       -1.99621
H          3.77005       -1.27480        2.34783
H          4.64365       -0.91109        1.00564
C          2.78874       -1.56087        0.55100
C          3.11022       -1.22227       -0.90138
N          3.71970       -0.82939        1.43631
N          4.52353       -1.51076       -1.16717
