38
1sa1msa1dma1eda_321.log	Energy: -1060540.6593231
S         -0.06423       -0.62334       -1.17402
O          1.24347       -0.86828       -1.81538
O         -1.17275       -1.40624       -1.70516
O          0.06563       -1.15294        0.35941
O         -0.35681        0.82907       -1.03182
H          0.90703       -0.80317        0.74043
H         -1.51106        0.91198        0.20986
S          3.63901       -0.03377        0.49260
O          4.45645       -1.21261        0.69449
O          2.34831        0.03055        1.20185
O          3.39981        0.25770       -1.03453
H          2.53948       -0.17513       -1.37432
C          4.57425        1.41190        0.92659
H          4.81138        1.32680        1.98740
H          5.48574        1.41620        0.32896
H          3.96718        2.29409        0.72778
N         -3.19609       -1.59645        0.46161
C         -4.61928       -1.63208        0.13088
C         -2.80238       -2.62025        1.43017
H         -2.64317       -1.72572       -0.39061
H         -5.21017       -1.38109        1.01833
H         -4.83135       -0.89615       -0.64881
H         -4.94174       -2.61970       -0.22692
H         -3.29461       -2.42893        2.38993
H         -3.07576       -3.63160        1.09988
H         -1.72001       -2.57725        1.56723
H         -1.70097        3.49069        0.95961
H         -3.34631        4.02360        0.60003
H         -3.57382        2.08385        1.98756
H         -4.01334        1.60418        0.33350
H         -1.61876        0.87224        1.85417
H         -2.64067       -0.15315        0.89660
H         -2.26528        4.02257       -1.45372
H         -1.66919        2.50486       -1.28930
C         -2.61871        3.22994        0.40340
C         -3.19345        1.93834        0.97349
N         -2.44183        3.11726       -1.03590
N         -2.18588        0.84626        1.00961
