36
1sa1msa2dma_163.log	Energy: -1025810.9057183
S         -1.45846       -0.33464       -0.82178
O         -0.42419       -0.17623       -1.83858
O         -2.67874       -1.05498       -1.19436
O         -0.85520       -1.20785        0.38031
O         -1.81030        0.99464       -0.17605
H          0.05617       -0.86881        0.62930
H         -3.08385        0.80960        0.52706
S          2.73213       -1.02356        0.33290
O          1.54269       -0.33809        0.94700
O          3.59231       -1.70981        1.28972
O          3.46178       -0.02685       -0.53236
H          2.81523        1.31526       -0.48704
C          2.07813       -2.23026       -0.80546
H          1.52688       -2.97541       -0.23069
H          1.41548       -1.72051       -1.50728
H          2.92447       -2.69050       -1.31591
N         -4.05326        0.59187        1.01110
C         -3.93389       -0.70315        1.72666
C         -5.09955        0.59256       -0.03849
H         -4.23123        1.33791        1.68123
H         -3.69870       -1.46778        0.98612
H         -3.11188       -0.63678        2.43907
H         -4.87133       -0.92895        2.23918
H         -4.80994       -0.15112       -0.78163
H         -6.06963        0.35402        0.40256
H         -5.12810        1.57740       -0.50532
N          2.46141        2.33714       -0.35089
C          2.74315        2.69716        1.05743
C          1.02942        2.44849       -0.71917
H          3.02516        2.91207       -0.97493
H          2.19599        1.99361        1.68616
H          3.81193        2.58551        1.24164
H          2.42426        3.72328        1.25155
H          0.44071        1.88011       -0.00166
H          0.73006        3.49883       -0.70848
H          0.87206        2.00482       -1.70156
