36
1sa1msa2dma_133.log	Energy: -1025810.5191725
S          2.02785       -1.16140       -0.32887
O          2.07475       -0.87279       -1.75661
O          2.68552       -0.15269        0.52975
O          0.67415       -1.50577        0.18967
O          2.83041       -2.55257       -0.08910
H          3.65815       -2.50685       -0.58676
S         -2.55484       -0.53280       -0.14163
O         -3.61307        0.09739       -0.90069
O         -1.95195        0.20484        0.97422
O         -1.42598       -0.95533       -1.15608
H         -0.56406       -1.20421       -0.67440
C         -3.12608       -2.09296        0.49647
H         -3.90997       -1.88223        1.22460
H         -3.51793       -2.67469       -0.33759
H         -2.28320       -2.60039        0.96739
N          0.56733        1.12717        1.74201
C          0.42045        0.26248        2.93204
C          0.56077        2.57432        2.02500
H          1.43627        0.84706        1.24087
H         -0.54194        0.46535        3.40252
H          0.46217       -0.77264        2.59517
H          1.23768        0.46723        3.62515
H         -0.37672        2.83587        2.51780
H          1.40492        2.82152        2.67040
H          0.64043        3.10011        1.07502
H         -0.19681        0.91649        1.08041
N          0.33968        1.83439       -1.17752
C          1.59449        2.49417       -1.52205
C         -0.82494        2.60422       -1.59884
H          0.32343        0.93098       -1.64345
H          1.67134        3.44627       -0.98124
H          2.43320        1.85862       -1.22978
H          1.68350        2.71912       -2.59709
H         -0.87510        3.53654       -1.02304
H         -0.80107        2.87380       -2.66751
H         -1.74019        2.04025       -1.40694
