33
1sa1msa1a1tma_78.log	Energy: -1001133.0237814
S         -2.01050        0.66244        0.32611
O         -1.02113        0.26469        1.32270
O         -2.66771        1.94087        0.45471
O         -1.32897        0.65333       -1.09951
O         -3.06525       -0.48850        0.25853
H         -0.72204       -0.12988       -1.17902
H         -3.95456       -0.12463       -0.15839
S          1.15658       -2.08474       -0.15379
O          2.55157       -1.74888       -0.32520
O          0.17933       -1.53384       -1.10551
O          0.67923       -1.74089        1.31677
H          0.03284       -0.97879        1.32765
C          0.97189       -3.84980       -0.14415
H          1.30696       -4.21087       -1.11700
H          1.60138       -4.24872        0.65121
H         -0.07793       -4.08674        0.02400
N         -5.21519        0.60013       -0.71108
H         -6.08776        0.32725       -0.26992
H         -5.33084        0.52523       -1.71695
H         -5.03449        1.57635       -0.48592
N          3.07476        2.33951        0.30546
C          4.06402        1.39088       -0.17530
H          5.01702        1.90323       -0.34118
H          4.21756        0.60517        0.56907
H          3.75876        0.90147       -1.11970
C          1.82484        1.67473        0.62121
H          1.99344        0.90731        1.38191
H          1.10271        2.39451        1.01682
H          1.37248        1.18977       -0.26645
C          2.86972        3.40936       -0.65188
H          2.15540        4.13579       -0.25243
H          3.81600        3.92656       -0.83842
H          2.47943        3.04116       -1.62218
