32
1sa1msa1a1eda_134.log	Energy: -1011229.9911536
S         -1.96030       -0.62600       -0.43665
O         -1.70338       -1.55809        0.69261
O         -1.89300        0.80033        0.06174
O         -1.12392       -0.86237       -1.60363
O         -3.46331       -0.82902       -0.87672
H         -4.05891       -0.46385       -0.14096
S          1.39389        1.86970       -0.01703
O          2.09666        1.22205       -1.11745
O          1.36489        1.10584        1.24643
O         -0.03482        2.31848       -0.40896
H         -0.81965        1.60202       -0.23065
C          2.14960        3.44480        0.30138
H          3.19255        3.25636        0.55693
H          2.07841        4.04073       -0.60832
H          1.62424        3.92267        1.12745
N         -4.71194        0.33734        1.18047
H         -3.98948        1.04553        1.29275
H         -4.72330       -0.23623        2.01714
H         -5.61130        0.79610        1.08891
H          1.19205       -2.94466       -0.77327
H          1.25139       -1.22409       -1.18332
H          3.54151       -2.24898       -1.30937
H          3.44887       -0.99137       -0.07896
H          3.48934       -3.87898        0.42618
H          4.40320       -2.70930        1.10884
H         -0.04084       -1.75955        0.86641
H          1.45857       -2.25070        1.55571
C          1.59048       -1.97354       -0.46860
C          3.10503       -1.99813       -0.33470
N          1.00467       -1.65187        0.86010
N          3.48086       -2.91573        0.74508
H          1.19502       -0.65973        1.10304
