33
1sa1msa1ma1dma_40.log	Energy: -1001156.7681874
S          1.50448        0.70264       -0.41719
O          1.31586        0.82669        1.02653
O          1.39223       -0.80422       -0.82954
O          0.62442        1.52894       -1.24234
O          2.96984        1.00070       -0.80692
H          3.61960        0.44927       -0.13332
S         -2.06584       -1.42464        0.01876
O         -2.51585       -0.78871       -1.22939
O         -2.22608       -0.52266        1.19982
O         -0.68449       -1.99340       -0.06356
H          0.50598       -1.24265       -0.52087
C         -3.10450       -2.83598        0.33911
H         -3.00806       -3.52393       -0.50091
H         -2.76838       -3.30428        1.26398
H         -4.13139       -2.48271        0.43416
N          4.31729       -0.40009        0.82801
H          5.18804       -0.00452        1.16962
C          4.52337       -1.74582        0.26407
H          4.90082       -2.45889        1.00333
H          3.57152       -2.10269       -0.13247
H          5.23355       -1.67758       -0.56189
H          3.67144       -0.43430        1.61493
N         -1.73143        1.94872        0.23222
C         -2.94509        2.34875       -0.51014
C         -1.28010        2.90319        1.26541
H         -1.90868        1.00771        0.67729
H         -2.75470        3.28317       -1.04078
H         -3.18538        1.54641       -1.20839
H         -3.76369        2.48210        0.19905
H         -1.07920        3.87038        0.80160
H         -2.06050        3.00564        2.02110
H         -0.36856        2.50564        1.71248
H         -0.95108        1.79341       -0.43311
