33
1sa1msa1a1tma_68.log	Energy: -1001144.8026800
S          1.91109       -0.58954       -0.30431
O          2.48837       -1.50406       -1.28942
O          0.44240       -0.58114       -0.19704
O          2.40584       -1.07543        1.14333
O          2.41769        0.81731       -0.45380
H          3.34242       -1.42869        1.05162
H          1.23980        1.76318       -0.16754
S         -3.01088       -0.71203        0.04940
O         -2.68673        0.07760        1.22022
O         -2.95841       -0.10474       -1.27380
O         -4.53820       -1.25007        0.24498
H         -5.03105       -1.02777       -0.55746
C         -2.10301       -2.23102        0.08115
H         -1.04842       -1.95135       -0.02040
H         -2.29669       -2.71571        1.03798
H         -2.43729       -2.84593       -0.75409
N          4.83593       -2.08140        0.47057
H          5.14369       -2.98411        0.81395
H          5.63391       -1.45628        0.44816
H          4.48662       -2.19174       -0.48082
N          0.46181        2.47806        0.03909
C         -0.09869        2.13865        1.37057
H         -0.54553        1.14711        1.31592
H          0.71381        2.13927        2.09833
H         -0.85545        2.87869        1.64218
C          1.11272        3.80474        0.03399
H          1.88145        3.82275        0.80717
H          1.57794        3.96638       -0.93905
H          0.36774        4.58052        0.22762
C         -0.55344        2.34926       -1.03412
H         -0.07595        2.56300       -1.99122
H         -0.93131        1.32804       -1.03770
H         -1.36651        3.05550       -0.84904
