26
1sa1msa1dma_88.log	Energy: -940968.6676997
S         -2.34095        0.28344       -0.02646
O         -3.38467        1.16355       -0.46723
O         -1.06759        0.80247        0.44160
O         -2.86861       -0.60149        1.20742
O         -2.10332       -0.77690       -1.15719
H         -3.79891       -0.82974        1.06241
H         -1.28643       -1.32317       -0.96085
S          1.36657       -1.60725       -0.13141
O          2.16834       -1.12163       -1.23119
O          0.02168       -2.12938       -0.43376
O          1.22659       -0.51170        1.01165
H          0.42387        0.04705        0.85436
C          2.24902       -2.85102        0.77020
H          2.43989       -3.66581        0.07122
H          3.18555       -2.41388        1.11640
H          1.63109       -3.18203        1.60373
N          2.00717        3.42661       -0.16267
C          1.79698        2.95957        1.19725
C          1.79831        2.38305       -1.15470
H          1.38877        4.20696       -0.35330
H          2.53989        2.18968        1.43224
H          1.93927        3.78563        1.89973
H          0.79592        2.52614        1.36825
H          2.55061        1.59860       -1.02563
H          0.80449        1.90696       -1.09255
H          1.92075        2.79930       -2.15824
