32
1sa1msa1a1eda_104.log	Energy: -1011238.0560684
S         -2.38136       -0.56778       -0.17400
O         -1.21145       -0.42770       -1.33768
O         -1.72421        0.00667        1.04693
O         -3.44644        0.26334       -0.69979
O         -2.60350       -2.00890       -0.02063
H         -1.13996       -2.85696        1.62864
S          2.09492       -0.70497       -0.26847
O          2.15087       -0.24022        1.13365
O          1.95952        0.36599       -1.27259
O          1.02883       -1.76307       -0.44085
H         -0.45378       -1.02693       -1.12855
C          3.63184       -1.53948       -0.61758
H          3.76607       -2.33901        0.11116
H          3.57802       -1.94166       -1.62917
H          4.43425       -0.80591       -0.53576
N         -0.41204       -2.16688        1.81668
H          0.27456       -2.16689        1.02248
H          0.04890       -2.31563        2.70833
H         -0.88926       -1.22250        1.74817
H         -0.65519        3.97262       -0.22389
H         -1.77822        2.62414        0.13464
H         -0.24452        3.10549        2.07316
H         -0.03299        1.48060        1.42451
H          1.89588        3.61435        1.33628
H          2.09879        1.97610        1.16024
H         -0.40354        2.61564       -2.06321
H          0.83343        2.06822       -1.07310
C         -0.73267        2.90525       -0.00279
C          0.12355        2.53941        1.20986
N         -0.19435        2.16085       -1.17788
N          1.52850        2.77673        0.90548
H         -0.56960        1.18738       -1.23348
