40
1sa1msa2eda_83.log	Energy: -1095293.7607480
S         -2.61466        0.06783       -0.17765
O         -2.58005        1.08720       -1.21682
O         -3.01452       -1.28744       -0.57049
O         -1.36067        0.04342        0.64690
O         -3.76091        0.61760        0.84475
H         -3.87499       -0.03347        1.54977
S          3.13004       -0.19565        0.16085
O          2.95849       -1.50136        0.83337
O          3.07173        0.98787        1.03166
O          2.15329       -0.06109       -0.99324
C          4.74591       -0.22175       -0.59449
H          5.48204       -0.33937        0.20123
H          4.79106       -1.06104       -1.28837
H          4.89554        0.72277       -1.11759
H         -1.06129       -2.63914       -1.48235
H          0.47195       -3.54480       -1.55862
H         -1.39111       -4.88523       -0.57837
H         -0.04285       -4.68964        0.54983
H         -2.44587       -2.99202        0.63224
H         -2.03869       -4.16589        1.72798
H          0.86779       -1.32764       -0.72037
H         -0.32347       -1.48974        0.42993
C         -0.27069       -3.10533       -0.88967
C         -0.85684       -4.15334        0.04713
N          0.37813       -2.01825       -0.11970
N         -1.67348       -3.50114        1.05787
H          1.12240       -2.33417        0.51580
H          0.70749        3.58146       -1.42247
H         -0.69122        2.51904       -1.75862
H         -1.44537        4.67865       -0.76908
H         -1.84052        3.29543        0.24796
H          0.27651        5.25260        0.76632
H         -0.84507        4.64722        1.79361
H          1.16933        1.35580       -0.59820
H          0.95291        2.39964        0.68731
C         -0.11351        3.01271       -0.97674
C         -1.01072        3.90238       -0.12595
N          0.48151        1.96728       -0.11338
N         -0.24785        4.41946        1.00884
H         -0.25456        1.32557        0.25463
