30
1sa1msa1a1dma_01.log	Energy: -976511.6141010
S          2.23675        0.38301        0.33385
O          3.53697        1.01521        0.38075
O          1.26862        1.38523        1.16637
O          1.61100        0.33961       -1.03484
O          2.10929       -0.94759        0.96950
H          0.95736        1.75200       -1.36705
H         -0.63128       -1.54007       -0.59422
S         -2.13847        0.48447        0.07692
O         -2.06428       -0.59822       -0.93765
O         -2.01202        1.84641       -0.50943
O         -1.19112        0.24531        1.19981
H          0.38016        0.96206        1.27844
C         -3.77526        0.42151        0.77575
H         -4.49399        0.58112       -0.02803
H         -3.91337       -0.56025        1.22881
H         -3.85283        1.20697        1.52739
N          0.41547        2.67168       -1.32100
H         -0.57304        2.41916       -1.05291
H          0.44765        3.18235       -2.19794
H          0.83048        3.21768       -0.56729
N          0.08847       -2.23289       -0.30052
C          0.71974       -2.81954       -1.49944
C         -0.55261       -3.20234        0.60770
H          0.82630       -1.70690        0.23089
H         -0.04169       -3.30798       -2.10990
H          1.19381       -2.00854       -2.05242
H          1.47434       -3.54337       -1.18809
H         -1.34257       -3.73359        0.07402
H          0.19648       -3.90788        0.97032
H         -0.97675       -2.64937        1.44602
