38
1sa1msa1dma1eda_247.log	Energy: -1060547.0375050
S          0.23606        0.96405        0.85369
O          0.85332       -0.15584        1.59674
O         -0.94848        1.53638        1.49828
O          1.29239        2.15672        0.82056
O         -0.02464        0.58456       -0.56974
H          2.15240        1.80004        0.49016
H         -1.62315        0.87474       -0.95478
S          3.67273       -0.54731       -0.39681
O          5.00951       -1.06379       -0.58153
O          3.49915        0.88585       -0.12830
O          2.99447       -1.37758        0.76482
H          2.17183       -0.91062        1.11257
C          2.67583       -0.94830       -1.81541
H          3.11222       -0.42679       -2.66834
H          2.71750       -2.02758       -1.96157
H          1.65806       -0.59977       -1.62369
N         -2.65040        1.06723       -1.07002
C         -3.10586        0.55963       -2.37857
C         -2.87303        2.51382       -0.85803
H         -3.09686        0.53320       -0.27587
H         -2.52261        1.03338       -3.17012
H         -2.97697       -0.52295       -2.38927
H         -4.16354        0.79694       -2.51143
H         -2.36183        3.07334       -1.64316
H         -3.94389        2.72358       -0.88968
H         -2.45409        2.77821        0.11309
H         -4.24853       -2.89476        1.25680
H         -2.91616       -3.52517        0.28738
H         -2.10493       -1.99000        2.02753
H         -1.71553       -1.40853        0.40910
H         -4.01042       -0.42738        1.96442
H         -2.57555        0.34506        1.76336
H         -4.55079       -2.88861       -1.22940
H         -4.78098       -1.42915       -0.54414
C         -3.48873       -2.61911        0.50627
C         -2.54218       -1.58900        1.10443
N         -4.07791       -2.13372       -0.74433
N         -3.23012       -0.30603        1.32410
