41
1sa1msa1tma1eda_183.log	Energy: -1085205.3204262
S          0.05098       -1.71876       -0.57332
O          0.68230       -0.83888       -1.59237
O         -0.31644       -0.91584        0.63935
O         -1.06099       -2.52060       -1.06572
O          1.16111       -2.75699       -0.10544
H          1.97829       -2.25865        0.13737
S          3.28318        0.35242        0.41855
O          4.55492        1.03234        0.50396
O          3.25022       -1.11236        0.50480
O          2.58769        0.80117       -0.93079
H          1.86870        0.14886       -1.20575
C          2.18574        0.98462        1.66841
H          2.63338        0.74545        2.63393
H          2.10761        2.06401        1.53694
H          1.21999        0.48867        1.54884
H         -1.14250        4.33361       -0.81010
H         -0.88855        3.87500        0.87735
H          0.55491        2.56182       -0.61076
H         -0.58749        1.51387        0.23405
H         -0.87207        2.38520       -2.54291
H         -0.60068        0.87630       -1.98939
H         -3.23740        4.00743        0.37670
H         -3.07658        2.86592       -0.78444
C         -1.29323        3.52277       -0.07768
C         -0.50936        2.29731       -0.52672
N         -2.70697        3.18560        0.10704
N         -1.06591        1.75554       -1.76889
N         -2.99222       -0.76392        0.69907
C         -3.41338       -2.12387        1.11616
H         -2.98880       -2.84041        0.41241
H         -3.02441       -2.31869        2.11616
H         -4.50456       -2.17629        1.11960
C         -3.38419        0.27767        1.68044
H         -2.89134        0.06328        2.63007
H         -3.08042        1.25988        1.30061
H         -4.46885        0.24809        1.81242
C         -3.45977       -0.43613       -0.67441
H         -2.96656        0.48307       -1.00190
H         -3.16638       -1.25109       -1.33586
H         -4.54577       -0.31633       -0.65699
H         -1.93665       -0.78301        0.66998
