27
1sa1msa1a1ma_134.log	Energy: -951824.8946657
S         -1.95391        0.17918        0.40688
O         -3.14986        0.00796        1.22727
O         -0.67879        0.38463        1.11862
O         -1.71663       -1.20693       -0.38085
O         -2.12965        1.22437       -0.65703
H         -2.61607       -1.56082       -0.65906
H         -0.77620        1.89204       -0.90610
S          2.64626       -0.57999       -0.00574
O          2.08922        0.18545       -1.11598
O          3.26464        0.12564        1.10311
O          3.78385       -1.53977       -0.65685
H          4.60830       -1.39190       -0.17143
C          1.46063       -1.76090        0.55773
H          1.11355       -2.32979       -0.30455
H          1.94593       -2.39548        1.29880
H          0.63222       -1.18180        0.98220
N         -4.30714       -1.87711       -0.81603
H         -4.56149       -1.32760        0.00402
H         -4.66360       -2.81915       -0.70139
H         -4.75366       -1.46104       -1.62606
N          0.21774        2.31178       -0.98834
H          0.86924        1.51395       -1.05642
C          0.53368        3.12656        0.20911
H          1.55022        3.51413        0.13722
H         -0.18252        3.94513        0.27887
H          0.42997        2.47522        1.07619
H          0.28412        2.85257       -1.84727
