27
1sa1msa1a1ma_69.log	Energy: -951832.8856035
S          1.07574       -1.51080        0.02642
O          2.18672       -0.69020        0.49322
O          0.11676       -1.99878        1.01386
O          0.37642       -0.86563       -1.14528
O          1.80731       -2.81661       -0.59928
H          1.14417       -3.51279       -0.69996
S         -2.60293        0.59392        0.05262
O         -3.91380        1.10359       -0.28128
O         -1.50986        1.55468        0.27245
O         -2.18041       -0.40323       -1.10061
H         -1.19955       -0.63854       -1.07181
C         -2.69601       -0.44103        1.49250
H         -2.95220        0.20473        2.33319
H         -3.47978       -1.17834        1.31855
H         -1.72612       -0.92362        1.63399
N          0.87110        1.85358       -1.11217
H          0.89033        0.84024       -1.34041
H          0.95626        2.42004       -1.95042
H         -0.05076        1.99638       -0.66374
H          1.65570        2.06189       -0.39911
N          2.85905        2.09756        0.77224
H          2.85984        2.84303        1.46107
C          4.19107        1.93187        0.17562
H          4.97535        1.73950        0.91613
H          4.15951        1.08270       -0.51067
H          4.45690        2.83013       -0.38852
H          2.59893        1.23120        1.24312
