28
1sa1msa1eda_78.log	Energy: -975729.3523694
S         -1.63987       -1.48501        0.07795
O         -2.50065       -0.45141       -0.52322
O         -0.28922       -1.44403       -0.56319
O         -1.59139       -1.53410        1.53307
O         -2.31843       -2.87047       -0.42022
H         -2.06256       -3.56297        0.20388
S          2.59131        0.10666        0.06034
O          2.42966        0.93853        1.24186
O          2.02484        0.63559       -1.19242
O          2.06175       -1.34782        0.30392
H          1.07281       -1.44169        0.02913
C          4.31333       -0.22922       -0.19909
H          4.80398        0.73121       -0.35881
H          4.70133       -0.71509        0.69596
H          4.41284       -0.87154       -1.07314
H         -0.75266        1.10300        0.96916
H          0.32936        2.43735        0.57329
H         -1.90898        3.08654        1.66373
H         -1.49950        3.96458        0.18744
H         -3.27728        1.61611        0.15156
H         -3.74098        3.19023       -0.01709
H          0.27870        1.07125       -1.27509
H         -1.39521        0.82447       -1.18002
C         -0.64197        1.99489        0.34918
C         -1.78459        2.97931        0.57636
N         -0.63180        1.52228       -1.06742
N         -2.97338        2.54208       -0.14174
H         -0.80169        2.28943       -1.71569
