28
1sa1msa1eda_108.log	Energy: -975728.7169659
S          2.35448        0.12513       -0.06437
O          1.91388        0.94637       -1.19801
O          2.01022        0.70382        1.24346
O          1.98833       -1.31042       -0.22366
O          3.97480        0.11789       -0.04260
H          4.28174       -0.40155       -0.79816
S         -1.41025       -1.56896        0.02864
O         -2.70950       -1.44710       -0.61532
O         -0.96650       -0.45861        0.87028
O         -0.34253       -1.85203       -1.08464
H          0.60568       -1.61953       -0.76700
C         -1.37943       -3.05144        1.00996
H         -2.12066       -2.93771        1.80157
H         -1.62951       -3.89214        0.36299
H         -0.37798       -3.15839        1.42850
H         -1.65594        1.63400        1.59695
H         -1.26004        3.37007        1.65478
H         -3.44970        2.82048        0.44280
H         -2.30326        3.73996       -0.53519
H         -2.77362        0.84633       -0.81502
H         -2.81779        2.02556       -1.96193
H          0.55719        1.63567        0.88591
H         -0.36785        1.60463       -0.50439
C         -1.40253        2.50935        0.99931
C         -2.47705        2.76556       -0.06451
N         -0.12691        2.18499        0.31722
N         -2.38118        1.74249       -1.09464
H          0.36525        3.00144       -0.04272
