35
1sa1msa1ma1eda_105.log	Energy: -1035888.5364678
S          0.91094        1.05059        0.85806
O          0.37881       -0.30634        1.20817
O          0.98175        1.19117       -0.63110
O          0.14330        2.13189        1.48977
O          2.37092        1.12435        1.39992
H          3.04516        0.66007        0.71840
S         -2.59848       -1.28537       -0.01087
O         -3.42801       -2.25282       -0.69393
O         -2.88309        0.14139       -0.24735
O         -1.09936       -1.59066       -0.36771
H         -0.45386       -1.03777        0.21811
C         -2.66319       -1.53720        1.74967
H         -3.67460       -1.29152        2.07467
H         -2.43618       -2.58479        1.94711
H         -1.92544       -0.87981        2.21377
N         -1.44322        2.41737       -0.77571
H         -0.53171        2.04363       -1.11180
H         -2.05119        1.58486       -0.63534
C         -2.04790        3.43554       -1.65453
H         -2.97478        3.79499       -1.20850
H         -1.35120        4.26429       -1.77817
H         -2.26101        2.98558       -2.62362
H         -1.19659        2.75564        0.16629
H          4.77374       -1.70834       -1.14114
H          4.51307       -1.71159        0.62050
H          2.86095       -3.08882       -0.65602
H          2.10589       -1.83836        0.34108
H          1.46362       -2.15353       -2.16594
H          1.57182       -0.64397       -1.56580
H          4.90758        0.51154       -0.21258
H          3.61887        0.39643       -1.21249
C          4.09953       -1.38470       -0.33864
C          2.72341       -2.00818       -0.55152
N          3.99022        0.08673       -0.31428
N          2.11170       -1.48220       -1.77225
