30
1sa1msa1a1dma_23.log	Energy: -976498.5625692
S          1.93382        0.65134        0.48850
O          1.06747        1.82665        0.47328
O          3.33289        0.81645        0.81475
O          1.35002       -0.42788        1.45038
O          1.79573        0.00414       -0.94662
H          0.32635       -0.54750        1.31029
H          2.61220       -0.61002       -1.11417
S         -1.84168       -1.47257        0.05769
O         -2.92422       -2.26142        0.62689
O         -1.10715       -0.63581        1.08205
O         -2.23226       -0.59220       -1.08624
H         -1.84650        0.94030       -0.73390
C         -0.62027       -2.59969       -0.59633
H         -0.28560       -3.24608        0.21596
H         -1.10039       -3.18836       -1.37853
H          0.20662       -2.01508       -1.00196
N          3.98346       -1.42388       -1.18139
H          4.44754       -1.44413       -2.08367
H          3.92795       -2.37541       -0.83194
H          4.55882       -0.88709       -0.53505
N         -1.57904        1.90603       -0.39349
C         -2.48495        2.27260        0.71631
C         -1.56479        2.85663       -1.52116
H         -0.61673        1.80942       -0.02194
H         -3.50573        2.33366        0.33614
H         -2.41580        1.49092        1.47283
H         -2.17882        3.23366        1.13285
H         -2.56333        2.91520       -1.95668
H         -1.25402        3.84011       -1.16481
H         -0.85747        2.49819       -2.26895
