39
1sa1msa1dma1tma_49.log	Energy: -1050475.8413631
S          0.94166        0.85825        0.33677
O          1.35274       -0.57978       -0.02923
O          0.07162        0.83963        1.53249
O          2.22228        1.61128        0.57676
O          0.20532        1.44282       -0.83159
H          3.44563        0.74508        0.17782
H         -1.30468        1.63415       -0.37218
S         -1.67112       -2.30540       -0.15893
O         -2.32942       -3.56970       -0.42843
O         -2.32452       -1.07265       -0.60802
O         -0.22065       -2.39298       -0.75524
H          0.36491       -1.58163       -0.49628
C         -1.38281       -2.14042        1.59263
H         -2.36109       -2.11572        2.07543
H         -0.81821       -3.01134        1.92569
H         -0.83354       -1.21006        1.76971
N          3.96186       -0.12799       -0.18452
C          4.95910       -0.61436        0.78098
C          4.46058        0.11169       -1.54946
H          3.12008       -0.74042       -0.21394
H          5.75486        0.12579        0.88214
H          4.46885       -0.75435        1.74464
H          5.37975       -1.56184        0.43796
H          5.23914        0.87584       -1.52094
H          4.86400       -0.81265       -1.96778
H          3.62678        0.46170       -2.15895
N         -2.24636        2.10361       -0.18673
C         -1.90137        3.52650        0.03440
H         -1.24089        3.58667        0.89987
H         -1.37313        3.89963       -0.84282
H         -2.81549        4.10033        0.20637
C         -3.06069        1.90440       -1.40801
H         -2.51700        2.31701       -2.25862
H         -3.20359        0.83337       -1.54994
H         -4.02067        2.41400       -1.29066
C         -2.88441        1.51064        1.01353
H         -3.09469        0.46408        0.79949
H         -2.17441        1.57632        1.83715
H         -3.80496        2.05965        1.23091
