38
1sa1msa1dma1eda_104.log	Energy: -1060559.4716554
S         -0.97586       -1.55073       -0.48408
O         -1.10066       -0.17789       -1.31700
O         -0.69071       -1.17733        0.91172
O         -2.33369       -2.11766       -0.68549
O          0.10743       -2.35160       -1.08340
H         -3.31741       -0.84996       -0.56706
H          1.53249       -1.90864       -0.15748
S          1.81509        1.67539       -0.19969
O          2.52341        1.02874       -1.31496
O          2.07933        1.01370        1.10928
O          0.34898        1.83662       -0.46113
H         -0.44120        0.51358       -1.01995
C          2.44124        3.33896       -0.04371
H          3.51276        3.27566        0.14675
H          2.24785        3.86116       -0.98088
H          1.93085        3.82565        0.78754
N          2.28876       -1.67160        0.52052
C          3.60197       -1.77978       -0.14836
C          2.12328       -2.52515        1.71410
H          2.13684       -0.67080        0.79405
H          3.72980       -2.79383       -0.53085
H          3.62165       -1.05169       -0.95992
H          4.38753       -1.54851        0.57305
H          2.26831       -3.56990        1.43419
H          2.85889       -2.23366        2.46560
H          1.11186       -2.37472        2.09117
H         -4.89328        1.07134        1.07292
H         -4.04829       -0.40947        1.59701
H         -2.87424        1.76399        2.28220
H         -1.86710        0.65694        1.34008
H         -2.93202        3.19769        0.43861
H         -1.54075        2.40667        0.01971
H         -4.78677       -0.07711       -0.90016
H         -3.35990        0.81398       -0.93110
C         -3.98136        0.47789        0.96540
C         -2.73702        1.31758        1.29022
N         -3.88057        0.04955       -0.45804
N         -2.53205        2.29255        0.22417
