32
1sa1msa1a1eda_268.log	Energy: -1011224.2247934
S          0.72416        1.19110       -0.28666
O          1.74260        2.09192       -0.83984
O         -0.67653        1.54547       -0.60939
O          1.01684       -0.23826       -0.64204
O          0.87916        1.30521        1.28245
H          2.52636       -0.26077       -1.02613
H          0.03410        0.92927        1.77248
S         -3.31355       -0.58479       -0.12352
O         -3.80823        0.51423        0.70053
O         -2.54474       -1.62335        0.55949
O         -2.52567       -0.03382       -1.36879
H         -1.74946        0.56768       -1.08629
C         -4.67299       -1.34472       -0.97736
H         -5.30867       -1.79754       -0.21606
H         -5.21277       -0.57181       -1.52355
H         -4.27678       -2.10280       -1.65225
N         -1.23791        0.37946        2.48379
H         -1.19387        0.37574        3.49763
H         -1.43919       -0.56853        2.16500
H         -2.04867        0.93063        2.20419
H          5.09601        0.51307        0.27031
H          3.43807        0.64713        0.90893
H          4.58812       -1.40211        1.80627
H          3.17295       -1.80339        0.82857
H          5.96535       -2.12608        0.02302
H          4.71404       -3.16462       -0.14583
H          3.52939        0.95861       -1.49389
H          4.10564       -0.64318       -1.64399
C          4.10864        0.04360        0.29400
C          4.18764       -1.39600        0.78504
N          3.56435        0.02160       -1.08639
N          4.97106       -2.18545       -0.16807
