33
1sa1msa1ma1dma_140.log	Energy: -1001153.6424749
S          0.48007        1.38969       -0.26242
O         -0.11931        0.64909       -1.41342
O          0.60293        0.48181        0.91906
O          1.72779        2.06424       -0.59226
O         -0.55161        2.53182        0.13291
H         -1.44350        2.12324        0.24368
S         -3.02373       -0.35871        0.23113
O         -4.35376       -0.90906        0.10337
O         -2.86382        1.09493        0.35629
O         -2.16845       -0.86329       -1.00087
H         -1.38243       -0.24887       -1.17875
C         -2.20199       -1.11012        1.61917
H         -2.75510       -0.82054        2.51372
H         -2.23100       -2.19133        1.48286
H         -1.17970       -0.72537        1.64961
N          2.02089       -1.45855       -1.67004
H          1.50424       -0.64309       -2.00466
C          1.04951       -2.42643       -1.13612
H          0.28715       -2.72340       -1.86352
H          1.57403       -3.32256       -0.79163
H          0.53839       -1.96755       -0.28547
H          2.51519       -1.84950       -2.46583
N          3.16692       -0.44323        0.63568
C          4.25435        0.54486        0.47896
C          3.47130       -1.55351        1.55627
H          2.28620        0.02948        0.93905
H          5.13570        0.04740        0.06954
H          3.90062        1.32643       -0.19279
H          4.49226        0.97962        1.45129
H          4.33628       -2.10704        1.18629
H          3.68655       -1.15822        2.55046
H          2.60609       -2.21562        1.60648
H          2.88355       -0.84127       -0.31952
