39
1sa1msa1dma1tma_44.log	Energy: -1050474.4472002
S          0.92280        0.73186        0.18184
O          0.19950        1.45457       -0.89752
O          0.17836        0.78206        1.45031
O          1.27563       -0.66536       -0.23098
O          2.30013        1.45310        0.38755
H          3.10389        0.80998        0.09871
S         -1.81170       -2.24242       -0.18917
O         -2.62789       -3.40305       -0.48174
O         -2.33752       -0.91394       -0.51348
O         -0.42446       -2.45268       -0.90690
H          0.21686       -1.69185       -0.70074
C         -1.37858       -2.23123        1.53989
H         -2.31123       -2.14681        2.09997
H         -0.88124       -3.17341        1.76978
H         -0.72984       -1.37200        1.73170
N          4.13208       -0.19265       -0.28761
C          4.51021       -0.94759        0.90813
C          5.26997        0.33494       -1.03706
H          3.55427       -0.78499       -0.88059
H          5.00262       -0.27460        1.61557
H          3.60475       -1.34181        1.37335
H          5.19170       -1.77738        0.67808
H          5.81031        1.05097       -0.41162
H          5.96921       -0.45373       -1.34611
H          4.90736        0.85823       -1.92423
N         -2.22318        2.19061       -0.09534
C         -2.79657        1.63519        1.15601
H         -3.07146        0.59895        0.96753
H         -2.02571        1.67054        1.92483
H         -3.66930        2.23080        1.43649
C         -1.78294        3.59412        0.08683
H         -1.05834        3.62243        0.90075
H         -1.30130        3.93213       -0.83036
H         -2.64879        4.21831        0.32001
C         -3.14200        2.03398       -1.24870
H         -2.64837        2.42181       -2.14027
H         -3.34725        0.97160       -1.37719
H         -4.06231        2.58994       -1.05404
H         -1.33636        1.67018       -0.34209
