38
1sa1msa1dma1eda_126.log	Energy: -1060555.2893926
S          1.20895       -1.56874       -0.77490
O          1.43727       -0.19532       -1.57923
O          0.50067       -2.50220       -1.64953
O          2.59442       -1.93167       -0.39972
O          0.40643       -1.20113        0.42885
H          3.02298       -0.65697        0.55259
H         -1.24263       -1.16717       -0.09090
S         -0.94029        2.01438       -0.21616
O          0.38042        2.26357        0.38788
O         -1.96120        1.46385        0.69666
O         -0.83605        1.18008       -1.47626
H          0.59670        0.34226       -1.59858
C         -1.55080        3.59405       -0.78384
H         -0.83276        4.00177       -1.49559
H         -2.51973        3.43983       -1.25896
H         -1.64767        4.24695        0.08410
N          3.31931        0.16767        1.15121
C          2.32887        0.38423        2.24202
C          3.50677        1.36088        0.28251
H          4.21514       -0.10730        1.55269
H          1.39973        0.72844        1.78686
H          2.16565       -0.56305        2.75447
H          2.71948        1.13760        2.92862
H          2.52574        1.66119       -0.08664
H          3.94927        2.16457        0.87368
H          4.15582        1.08702       -0.54880
H         -3.02287       -3.03679        1.08024
H         -4.23895       -1.94335        1.71943
H         -4.09569       -1.67392       -0.73769
H         -3.60266       -0.18344        0.11082
H         -1.84111       -2.03768       -1.34294
H         -1.88024       -0.35851       -1.33521
H         -1.31719       -1.73828        1.95385
H         -2.26825       -0.43091        2.19342
C         -3.24497       -1.97839        1.25876
C         -3.34945       -1.22843       -0.07486
N         -2.26149       -1.44756        2.18428
N         -2.03746       -1.21356       -0.77195
