32
1sa1msa1a1eda_03.log	Energy: -1011245.3241027
S          1.38582       -1.58424       -0.24719
O          0.94697       -0.86726        1.02073
O          0.78926       -0.65966       -1.42952
O          2.82438       -1.51653       -0.44766
O          0.72899       -2.89123       -0.32655
H         -1.25941       -2.72202        0.64711
S         -2.56411        0.61701       -0.13001
O         -1.85741        1.90560        0.05532
O         -2.97739       -0.02177        1.15191
O         -1.82152       -0.35003       -0.98752
H         -0.19734       -0.59645       -1.34099
C         -4.06799        0.99997       -1.00415
H         -4.65628        1.67603       -0.38364
H         -3.79942        1.47475       -1.94781
H         -4.60499        0.06786       -1.17932
N         -1.36309       -2.17295        1.50554
H         -1.52436       -2.78302        2.30077
H         -2.11355       -1.44373        1.40073
H         -0.44642       -1.66562        1.57946
H          1.94468        3.54707        0.40847
H          1.69948        2.66590        1.93772
H          4.08590        2.47626        1.03771
H          3.28308        0.91736        1.24947
H          4.19918        2.00733       -1.19585
H          3.52226        0.52227       -0.91161
H         -0.07016        2.11080        0.21496
H          1.20680        1.56643       -0.74242
C          1.94194        2.56061        0.87821
C          3.27927        1.84016        0.65900
N          0.89780        1.74447        0.22370
N          3.42895        1.52316       -0.75671
H          0.85201        0.79434        0.66089
