36
1sa1msa2dma_173.log	Energy: -1025803.7156897
S          0.12082       -0.04803       -1.03897
O          1.43887        0.05736       -1.65498
O         -1.02857        0.22595       -1.91680
O         -0.06157       -1.34440       -0.30240
O          0.13346        1.08658        0.09900
H          1.29609       -1.88009        0.22823
H         -0.76418        1.12565        0.51051
S         -3.54930        0.26874        0.44333
O         -4.87164        0.62546        0.90094
O         -2.38872        0.91998        1.06680
O         -3.50229        0.51091       -1.11765
H         -2.56188        0.43423       -1.46115
C         -3.31310       -1.48919        0.58982
H         -3.36796       -1.72780        1.65281
H         -4.11525       -1.98347        0.04191
H         -2.32898       -1.73721        0.18477
N          2.21461       -2.26908        0.62653
C          2.58432       -1.47681        1.82943
C          3.25195       -2.24934       -0.43544
H          2.01428       -3.23227        0.89298
H          2.86824       -0.47314        1.48713
H          1.72194       -1.43247        2.49499
H          3.42814       -1.95571        2.33025
H          3.39782       -1.21182       -0.73098
H          4.17733       -2.67739       -0.04607
H          2.89075       -2.82014       -1.29046
N          3.43901        1.31071        0.31207
C          4.73001        1.53697       -0.31771
C          3.07404        2.37193        1.23951
H          2.72162        1.22789       -0.40495
H          5.52409        1.48193        0.43599
H          4.91995        0.76267       -1.06747
H          4.80865        2.51780       -0.81611
H          3.76702        2.37335        2.08934
H          3.10000        3.37478        0.78227
H          2.06299        2.19440        1.61320
