33
1sa1msa1ma1dma_212.log	Energy: -1001134.0429760
S         -1.53561        0.41791       -0.07800
O         -0.17653        0.94861        0.14131
O         -2.50396        1.40519       -0.57964
O         -1.43644       -0.64942       -1.26617
O         -2.05658       -0.31753        1.10918
H         -0.67552       -1.25687       -1.09229
H         -3.70513       -0.11771        1.12293
S          2.00921       -1.70502       -0.09402
O          3.00439       -1.39229       -1.09837
O          0.68828       -2.16390       -0.55017
O          1.81354       -0.50521        0.91462
H          1.03441        0.07930        0.64507
C          2.65965       -2.91907        1.02576
H          2.87291       -3.81206        0.43755
H          3.57467       -2.51873        1.46201
H          1.91115       -3.12173        1.79062
N         -4.58571        0.26026        0.66988
H         -5.25884        0.57924        1.36200
C         -5.14228       -0.73657       -0.27695
H         -5.98408       -0.30201       -0.81483
H         -4.35043       -1.00322       -0.97718
H         -5.45959       -1.62040        0.27513
H         -4.17303        1.05813        0.14879
N          2.01182        3.16972       -0.08355
C          2.66775        3.00038        1.20132
C          2.73941        2.52552       -1.16541
H          1.07730        2.77707       -0.03735
H          3.62308        3.53869        1.19833
H          2.04591        3.42958        1.99244
H          2.87874        1.94603        1.45540
H          3.70384        3.02779       -1.30709
H          2.94137        1.45463       -0.99140
H          2.17410        2.62105       -2.09640
