40
1sa1msa2eda_264.log	Energy: -1095274.2212263
S          0.46980       -1.77499       -0.78669
O          1.04458       -0.75746       -1.70032
O         -0.47079       -2.70633       -1.39736
O          1.68195       -2.66364       -0.26416
O         -0.11968       -1.10550        0.42337
H          2.39934       -2.06241        0.04974
H         -1.67783       -1.49651        0.32816
S          3.21156        0.69763        0.63403
O          4.33277        1.57623        0.87379
O          3.44197       -0.75001        0.56195
O          2.50643        1.16860       -0.70407
H          1.96703        0.42191       -1.11079
C          1.96174        0.97763        1.86900
H          2.38093        0.65090        2.82167
H          1.74150        2.04512        1.89238
H          1.08482        0.38420        1.59923
H         -4.27521       -2.32671        1.53580
H         -2.71947       -2.03807        2.35875
H         -4.33767       -0.05832        2.55342
H         -2.80935        0.35559        1.77630
H         -5.38933        0.18923        0.48097
H         -4.05374        1.11369        0.08937
H         -2.57738       -2.82383       -0.08522
H         -3.19647       -1.29270       -0.41769
C         -3.37455       -1.70773        1.55076
C         -3.73448       -0.21893        1.65247
N         -2.66820       -1.86898        0.25994
N         -4.37922        0.19275        0.41464
H         -1.58455        4.11425       -0.68897
H         -1.97910        3.36988        0.86696
H          0.11868        2.45482       -0.06518
H         -1.10391        1.19203        0.07621
H         -0.28551        2.48983       -2.40208
H         -0.31585        0.90008       -2.03954
H         -3.85829        3.48183       -0.77570
H         -3.04156        2.36097       -1.65543
C         -1.90428        3.17567       -0.20907
C         -0.84515        2.10783       -0.46593
N         -3.20163        2.71090       -0.71055
N         -0.80043        1.78105       -1.88898
