36
1sa1msa1ma1tma_29.log	Energy: -1025818.2074938
S          0.16375       -1.82856        0.22750
O          1.39472       -2.51689        0.59852
O         -0.63808       -1.26937        1.32141
O          0.48522       -0.71800       -0.78573
O         -0.72703       -2.85035       -0.57213
H         -1.62522       -2.38872       -0.80291
S         -1.04346        2.26206       -0.00175
O         -1.72304        3.43019       -0.52236
O          0.38303        2.34856        0.32075
O         -1.25026        1.08568       -1.04365
H         -0.52908        0.35639       -0.93057
C         -1.89583        1.67404        1.44358
H         -1.76174        2.42499        2.22325
H         -2.95191        1.57002        1.19276
H         -1.45701        0.71358        1.72375
N         -2.97148       -1.54482       -1.03230
H         -2.68593       -0.58497       -1.22223
C         -3.76784       -1.59951        0.20267
H         -4.64771       -0.94584        0.17788
H         -4.09747       -2.62701        0.37123
H         -3.12242       -1.31615        1.03660
H         -3.51525       -1.85722       -1.83070
N          2.90270        0.24561       -0.17668
C          3.85363       -0.83646       -0.53303
H          3.51648       -1.75462       -0.05128
H          3.84173       -0.97019       -1.61525
H          4.85583       -0.55682       -0.19985
C          3.18494        1.50869       -0.90106
H          3.16199        1.30936       -1.97316
H          2.41231        2.23319       -0.64345
H          4.17340        1.87293       -0.61130
C          2.82988        0.45237        1.29411
H          2.04739        1.18491        1.49248
H          2.57657       -0.50121        1.75858
H          3.79835        0.81062        1.65134
H          1.94139       -0.08822       -0.46833
