35
1sa1msa1ma1eda_30.log	Energy: -1035901.7263466
S          2.91938       -0.01456        0.20173
O          2.92003       -1.37352        0.78169
O          2.08029        0.10190       -1.00075
O          2.68285        1.04822        1.20003
O          4.42006        0.23935       -0.36690
H          5.03305        0.21757        0.38044
S         -2.55078       -0.73038        0.10841
O         -2.47641       -1.62799       -1.05488
O         -3.16708        0.58575       -0.11716
O         -1.17915       -0.58883        0.74916
C         -3.53985       -1.55321        1.34761
H         -4.54135       -1.68419        0.93660
H         -3.08742       -2.52028        1.56789
H         -3.56825       -0.92759        2.23981
N          0.60124       -2.23130       -0.51264
H         -0.10448       -1.65512        0.01068
H          0.84137       -1.67310       -1.33544
C          0.07510       -3.57136       -0.84246
H          0.79962       -4.11055       -1.45270
H         -0.09637       -4.11460        0.08686
H         -0.86952       -3.44623       -1.37083
H          1.46985       -2.23511        0.05350
H          0.69773        3.55227       -0.39482
H          0.73471        2.01610       -1.29162
H         -1.21138        3.64552       -1.89148
H         -1.69541        1.99227       -1.50134
H         -2.48247        4.29183       -0.12783
H         -2.84706        2.71353        0.19193
H          1.02581        1.70737        1.07341
H         -0.50584        2.44807        1.32087
C          0.15543        2.62483       -0.59651
C         -1.26575        2.90785       -1.08480
N          0.07758        1.88795        0.69107
N         -2.09111        3.37350        0.03192
H         -0.39836        0.96237        0.59700
