35
1sa1msa1ma1eda_50.log	Energy: -1035899.8652289
S         -2.96391        0.26584        0.12360
O         -3.14758       -0.99750        0.86637
O         -2.68079        1.43242        0.96591
O         -2.02018        0.11880       -1.01175
O         -4.37276        0.55535       -0.63109
H         -5.05571        0.67400        0.04303
S          2.35864       -0.97558       -0.17226
O          2.82288        0.23489       -0.87682
O          2.03509       -2.13304       -1.02272
O          1.19997       -0.65451        0.74968
C          3.68688       -1.46969        0.91371
H          3.37286       -2.35589        1.46553
H          4.55836       -1.69143        0.29692
H          3.89594       -0.64673        1.59773
N         -0.84879       -2.29649       -0.03396
H         -0.07851       -1.69880        0.35644
H         -1.73515       -2.03019        0.43687
C         -0.51855       -3.73295        0.06692
H         -1.31222       -4.32327       -0.39095
H          0.43204       -3.89773       -0.43950
H         -0.42872       -3.99460        1.12111
H         -0.95380       -1.98549       -1.00117
H          1.41315        2.05493       -1.55776
H          0.12976        3.29234       -1.48205
H          2.32738        4.16405       -0.71116
H          1.10878        4.24098        0.56717
H          3.03822        2.02885        0.36512
H          3.08995        3.25863        1.47584
H         -0.64251        1.18496       -0.62723
H          0.62208        1.06991        0.44021
C          0.81669        2.68227       -0.89208
C          1.71962        3.55062       -0.02780
N          0.01666        1.75208       -0.05918
N          2.48300        2.70964        0.88029
H         -0.57465        2.22203        0.63118
