28
1sa1msa1eda_16.log	Energy: -975733.6392004
S          1.49931       -1.66027       -0.00052
O          0.60570       -2.41845       -0.90640
O          2.24098       -0.59289       -0.71612
O          0.85983       -1.21756        1.23586
O          2.63386       -2.70503        0.48718
H          3.14664       -2.98038       -0.28528
S          0.41676        2.35552       -0.07419
O         -0.77700        1.49801       -0.17463
O          0.24194        3.77304       -0.29546
O          1.50972        1.85013       -1.08895
H          1.75184        0.87650       -0.95747
C          1.14507        2.06223        1.52079
H          2.08687        2.60911        1.56406
H          0.44293        2.44371        2.26326
H          1.29128        0.98584        1.64257
H         -2.55885       -2.31682        0.64573
H         -1.56905       -1.01466        1.33315
H         -4.04346       -0.57280        1.67273
H         -3.27950        0.66219        0.66476
H         -5.03270       -1.47830       -0.28440
H         -5.05642        0.11536       -0.65187
H         -0.93192       -1.66665       -0.94905
H         -2.46376       -1.05617       -1.45158
C         -2.32198       -1.25158        0.58088
C         -3.57402       -0.39124        0.69785
N         -1.71645       -1.00472       -0.75217
N         -4.44662       -0.66635       -0.44584
H         -1.31422       -0.04800       -0.75421
