24
1sa1msa2a_16.log	Energy: -927176.4926091
S          1.69890       -0.87372       -0.03241
O          2.21062       -0.14225       -1.21122
O          1.41556       -0.02601        1.12726
O          0.60046       -1.80554       -0.37937
O          2.91034       -1.82136        0.47045
H          3.08911       -2.47783       -0.21701
S         -2.37833       -0.01591        0.00220
O         -3.81514        0.05107       -0.13808
O         -1.59554        1.17791       -0.34928
O         -1.88047       -1.24156       -0.85840
H         -0.89821       -1.42386       -0.72724
C         -1.93635       -0.46089        1.66679
H         -2.30742        0.33366        2.31528
H         -2.42259       -1.40787        1.90050
H         -0.84824       -0.53726        1.73056
N          0.75294        2.17123       -1.39856
H          1.16065        2.65735       -0.54434
H         -0.19562        1.83688       -1.14970
H          0.72558        2.77406       -2.21458
H          1.34522        1.32851       -1.55800
N          1.84232        2.92957        1.04212
H          1.26773        3.44145        1.70396
H          2.78998        3.28426        1.12026
H          1.84941        1.94639        1.32716
