35
1sa1msa1ma1eda_97.log	Energy: -1035887.9955358
S          1.04888        1.53213        0.23610
O          0.13919        0.71939       -0.66923
O          2.35215        1.76679       -0.37418
O          0.32090        2.74830        0.66671
O          1.23379        0.66395        1.53089
H         -1.26517        2.56185        0.50577
H          2.01288       -0.05136        1.40774
S         -2.36972       -1.32284       -0.03780
O         -2.96837       -1.13787       -1.35177
O         -2.73439       -0.31747        0.98071
O         -0.82164       -1.45934       -0.11849
H         -0.35572       -0.51471       -0.32812
C         -2.79987       -2.92166        0.60078
H         -3.88506       -2.94143        0.70435
H         -2.46720       -3.67263       -0.11529
H         -2.31399       -3.05128        1.56711
N         -2.28385        2.33749        0.30194
H         -2.45877        1.36917        0.64181
C         -2.53904        2.40869       -1.15857
H         -3.55672        2.08074       -1.36811
H         -2.38299        3.43209       -1.49881
H         -1.82552        1.74458       -1.64478
H         -2.87826        2.97564        0.82567
H          3.70670       -2.85991        0.31429
H          1.95221       -2.61201        0.50011
H          2.84764       -2.29986       -1.85432
H          1.91118       -0.94123       -1.24207
H          4.45281       -0.77054       -2.21392
H          3.71639        0.35968       -1.27252
H          3.32915       -1.45768        2.18845
H          3.96167       -0.54155        0.98023
C          2.90159       -2.11485        0.27733
C          2.85176       -1.48910       -1.11879
N          3.13024       -1.05638        1.27674
N          4.00683       -0.61348       -1.32041
