26
1sa1msa1dma_82.log	Energy: -940969.8023937
S         -1.42663       -1.35664        0.03089
O         -0.74644       -0.61491        1.07671
O         -2.84548       -1.23173       -0.16076
O         -0.74152       -1.09500       -1.35286
O         -1.06760       -2.88846        0.34560
H          0.24333       -0.93196       -1.24614
H         -1.64682       -3.46649       -0.17317
S          2.40510        0.32813       -0.05638
O          2.33366        1.69766       -0.51026
O          1.80287       -0.71685       -0.90531
O          1.80773        0.17277        1.40849
H          0.85537       -0.09537        1.36174
C          4.08830       -0.12231        0.26385
H          4.61949       -0.03788       -0.68464
H          4.48887        0.58204        0.99295
H          4.11245       -1.14385        0.64074
N         -2.68034        2.14401       -0.34011
C         -2.66469        2.45136        1.07878
C         -1.38581        2.32686       -0.96985
H         -3.01621        1.19866       -0.48541
H         -2.45734        3.51857        1.21754
H         -3.64612        2.24340        1.51330
H         -1.90545        1.88348        1.64528
H         -1.12881        3.39193       -0.97932
H         -0.55997        1.80050       -0.45754
H         -1.42453        1.98180       -2.00634
