40
1sa1msa2eda_147.log	Energy: -1095286.4229660
S         -1.19035       -1.13219        1.21449
O          0.10174       -1.82045        1.45949
O         -2.34080       -1.68603        1.91489
O         -1.05678        0.34199        1.36877
O         -1.43209       -1.38399       -0.36514
H         -0.05766        1.26969        0.41541
H         -2.41132       -1.21477       -0.54699
S          2.50691       -1.00503       -0.81044
O          3.92176       -0.83352       -1.07652
O          1.55043       -0.16034       -1.53011
O          2.31237       -0.80649        0.75001
H          1.40350       -1.15821        1.06742
C          2.02417       -2.69635       -1.07401
H          2.14609       -2.89598       -2.13900
H          2.67846       -3.33408       -0.48010
H          0.98167       -2.80386       -0.76955
H          1.04102        3.98244       -0.09024
H         -0.02371        3.47120        1.24437
H          2.34717        3.57866        2.02239
H          1.74265        1.92279        2.06238
H          3.76058        2.96508        0.26863
H          3.50693        1.41804        0.78270
H         -0.41291        2.18419       -0.89292
H          1.14518        1.57625       -0.70763
C          0.79605        3.16317        0.59087
C          2.02860        2.73940        1.39134
N          0.34991        2.00653       -0.20967
N          3.05583        2.26980        0.47404
H         -2.88358        1.60871        0.16244
H         -3.56608        2.65352       -1.08712
H         -5.25706        1.06761       -0.64506
H         -4.53578        0.53915       -2.16984
H         -4.09835       -0.68031        0.46725
H         -4.67115       -1.37792       -0.89061
H         -1.64148        0.48208       -1.57885
H         -2.21585        1.53310       -2.69749
C         -3.19552        1.64237       -0.88818
C         -4.34544        0.65148       -1.09659
N         -2.00239        1.42668       -1.71067
N         -4.02384       -0.67465       -0.54998
