41
1sa1msa1tma1eda_74.log	Energy: -1085216.5103570
S          0.51565       -1.72391       -0.84335
O          0.74221       -0.44499       -1.76787
O         -0.52580       -2.56745       -1.42773
O          1.87193       -2.32870       -0.81274
O          0.12626       -1.19754        0.50080
H          2.95679       -1.18027       -0.64073
H         -1.48837       -1.15150        0.69502
S         -0.87387        2.32055       -0.21565
O          0.52703        2.46964        0.21694
O         -1.84008        2.04188        0.86741
O         -1.02737        1.34701       -1.35298
H          0.02317        0.25915       -1.60938
C         -1.36121        3.89277       -0.91655
H         -0.67545        4.13406       -1.72909
H         -2.38182        3.80281       -1.28917
H         -1.30399        4.64454       -0.12882
H          3.84767        1.63589       -0.07957
H          2.20605        1.10631       -0.54511
H          2.36643        1.51663        1.91062
H          1.94965       -0.14718        1.52370
H          4.52561        0.79137        2.54202
H          3.69220       -0.55962        2.92559
H          4.14349       -0.27393       -1.42312
H          4.37233       -0.73286        0.18057
C          3.09797        0.84557        0.02151
C          2.75716        0.58912        1.48268
N          3.69219       -0.41248       -0.52263
N          3.94710        0.05132        2.15921
N         -2.52260       -1.32560        0.83405
C         -2.66962       -2.79571        0.95901
H         -2.26523       -3.25553        0.05677
H         -2.09772       -3.13225        1.82450
H         -3.72702       -3.03842        1.08882
C         -2.93565       -0.60944        2.06555
H         -2.35845       -1.00065        2.90454
H         -2.72173        0.45121        1.92466
H         -4.00179       -0.78104        2.23440
C         -3.22317       -0.80860       -0.37049
H         -3.02447        0.25925       -0.45058
H         -2.81628       -1.32072       -1.24286
H         -4.29277       -1.00731       -0.26429
