33
1sa1msa1a1tma_20.log	Energy: -1001160.2812176
S         -0.84830        1.71230        0.28024
O         -2.23979        1.67020        0.71425
O          0.18231        1.66875        1.32145
O         -0.59715        0.59563       -0.74074
O         -0.66037        3.05048       -0.54066
H          0.33073        3.13649       -0.75075
S          2.13013       -1.33501        0.01287
O          3.27741       -2.05465       -0.49975
O          0.89661       -2.07001        0.30394
O          1.79190       -0.17848       -1.01828
H          0.81919        0.13373       -0.90729
C          2.59341       -0.44224        1.47901
H          2.77798       -1.18164        2.25942
H          3.50581        0.11239        1.25801
H          1.77216        0.22921        1.74110
N          2.00439        3.02647       -0.88546
H          2.25593        2.06156       -1.09374
H          2.34930        3.23344        0.04718
H          2.48196        3.63065       -1.54563
N         -2.28653       -1.41159       -0.21882
C         -3.62644       -0.88494       -0.57859
H         -3.76886        0.06307       -0.05922
H         -3.65928       -0.71644       -1.65552
H         -4.38600       -1.61499       -0.28979
C         -1.93163       -2.62858       -0.98939
H         -2.00473       -2.40226       -2.05382
H         -0.90759       -2.90658       -0.73926
H         -2.62894       -3.42897       -0.73121
C         -2.15614       -1.62470        1.24711
H         -1.13093       -1.93256        1.45228
H         -2.37040       -0.67881        1.74583
H         -2.86531       -2.39537        1.55804
H         -1.58775       -0.65635       -0.46588
