39
1sa1msa1dma1tma_46.log	Energy: -1050477.0529898
S         -0.19258       -1.82343        0.13031
O          0.45754       -0.77350       -0.78192
O         -0.99328       -2.75945       -0.65029
O          0.82895       -2.37271        1.02181
O         -1.18326       -0.97813        1.03646
H         -2.07180       -0.81244        0.48182
S         -0.01151        2.52600        0.00628
O         -0.34008        3.85852       -0.45583
O          1.39184        2.17237        0.23333
O         -0.63783        1.50039       -1.02150
H         -0.20419        0.57552       -0.93715
C         -0.90081        2.19000        1.51068
H         -0.48369        2.83712        2.28314
H         -1.95113        2.42785        1.34063
H         -0.77639        1.13301        1.75316
N         -3.30073       -0.66615       -0.39433
C         -3.93238        0.65173       -0.32845
C         -4.19995       -1.77070       -0.04920
H         -2.93235       -0.82310       -1.32956
H         -4.20087        0.86544        0.71076
H         -3.22156        1.40517       -0.67397
H         -4.84389        0.70887       -0.93856
H         -4.50818       -1.66312        0.99465
H         -5.09861       -1.78730       -0.68033
H         -3.65650       -2.71096       -0.15801
N          3.06124       -0.57608       -0.18327
C          3.55012       -1.94494       -0.48361
H          2.99350       -2.64584        0.13843
H          3.35773       -2.16041       -1.53518
H          4.62209       -1.99600       -0.27870
C          3.68380        0.44440       -1.06086
H          3.49633        0.17218       -2.10030
H          3.22533        1.40932       -0.84588
H          4.75942        0.47161       -0.87084
C          3.21486       -0.24464        1.25694
H          2.79304        0.74635        1.42169
H          2.65902       -0.98734        1.82973
H          4.27707       -0.26365        1.51293
H          2.02252       -0.58280       -0.39027
