38
1sa1msa1dma1eda_309.log	Energy: -1060544.1683498
S         -2.72781       -0.74994       -0.36774
O         -3.71120       -1.79612       -0.56712
O         -3.21303        0.48768        0.27627
O         -1.42995       -1.15617        0.23147
O         -2.26057       -0.28927       -1.88621
H         -2.96167       -0.55448       -2.49560
S          1.93756       -1.73582        0.37610
O          1.85830       -2.93715        1.18291
O          1.89566       -0.44289        1.06900
O          0.84268       -1.73644       -0.77169
H         -0.09562       -1.59681       -0.40610
C          3.38608       -1.77598       -0.65158
H          4.24138       -1.83057        0.02318
H          3.33836       -2.66340       -1.28218
H          3.41677       -0.85779       -1.24177
N         -0.94250        1.57855        1.39994
C         -1.03163        3.03584        1.59763
C         -0.47494        0.82664        2.58339
H         -1.87198        1.21115        1.09879
H         -0.05313        3.42366        1.88767
H         -1.34552        3.49751        0.66061
H         -1.76153        3.25909        2.37739
H          0.56195        1.08850        2.79336
H         -1.11412        1.07161        3.43416
H         -0.53827       -0.23560        2.35607
H         -0.33569        1.40616        0.54356
H          1.73625        3.30152        0.09496
H          2.66386        3.72166       -1.34963
H          0.27534        3.32947       -1.84467
H          1.35106        2.23724       -2.73758
H         -0.59289        1.13349       -1.68692
H          0.80881        0.52343       -1.17264
H          3.97284        2.12990       -0.36853
H          2.72834        1.16310        0.07092
C          2.13387        2.90172       -0.85402
C          0.96598        2.48522       -1.73906
N          3.06262        1.79141       -0.65752
N          0.23534        1.36367       -1.14016
