41
1sa1msa1tma1eda_108.log	Energy: -1085211.9600600
S         -0.43774        1.63562        0.44096
O         -0.37429        0.80458       -0.92181
O         -0.91839        0.72930        1.49342
O          0.93398        2.15176        0.67182
O         -1.42231        2.70563        0.13387
H          2.22431        1.20765        0.14383
H         -2.84062        1.94168        0.40129
S          0.57720       -2.48667        0.03385
O          1.55327       -3.55681       -0.17827
O         -0.77038       -2.70179       -0.53126
O          1.13585       -1.14597       -0.41556
H          0.16195       -0.05199       -0.75554
C          0.35829       -2.29723        1.79859
H         -0.10586       -3.20933        2.17591
H          1.34101       -2.15970        2.25234
H         -0.27032       -1.42182        1.97170
H         -5.32601        0.57222       -0.51146
H         -4.28352        1.69457       -1.42284
H         -3.97156       -0.75643       -2.09982
H         -2.48562        0.01406       -1.52408
H         -4.03277       -1.98166       -0.10522
H         -2.40475       -1.75387       -0.17278
H         -4.32230        1.75455        1.19776
H         -3.30476        0.42545        0.99564
C         -4.29206        0.86249       -0.71683
C         -3.47466       -0.33656       -1.21688
N         -3.67228        1.30024        0.56256
N         -3.30715       -1.27408       -0.11449
N          3.18127        1.08024       -0.27384
C          2.99242        0.83511       -1.72847
H          2.49350       -0.12641       -1.84677
H          2.36352        1.63017       -2.13004
H          3.97068        0.83491       -2.21475
C          3.86572        2.37164       -0.02237
H          3.27259        3.17077       -0.46602
H          3.92982        2.53197        1.05382
H          4.86456        2.34025       -0.46282
C          3.86760       -0.05559        0.39217
H          3.91147        0.14421        1.46343
H          3.28724       -0.95788        0.20027
H          4.87750       -0.14402       -0.01522
