29
1sa1msa1tma_29.log	Energy: -965655.9207376
S         -2.13348       -0.84909        0.07783
O         -3.17652       -1.60942        0.73531
O         -1.36108        0.09944        0.89994
O         -1.23511       -1.67565       -0.78474
O         -2.87951        0.17837       -0.97067
H         -3.55126       -0.32414       -1.45098
S          2.13702       -0.98926       -0.08076
O          2.74698        0.20504        0.50406
O          2.96251       -1.89279       -0.85484
O          0.93610       -0.43450       -0.97111
H          0.09496       -1.03461       -0.97912
C          1.31053       -1.90146        1.20551
H          2.08830       -2.24247        1.88986
H          0.60110       -1.23866        1.70212
H          0.79313       -2.74838        0.75383
N          0.19440        2.23034        0.02697
C          1.26228        2.66341       -0.91130
H          2.17818        2.13014       -0.65869
H          0.95862        2.41062       -1.92683
H          1.39624        3.74238       -0.81100
C         -1.11414        2.86230       -0.28633
H         -1.38932        2.61086       -1.31020
H         -1.86258        2.45552        0.39131
H         -1.01425        3.94320       -0.16899
C          0.58375        2.44900        1.44610
H         -0.20458        2.04327        2.07931
H          1.52047        1.92038        1.62317
H          0.70433        3.52104        1.61476
H          0.06765        1.20871       -0.07793
