33
1sa1msa1ma1dma_36.log	Energy: -1001160.3153918
S         -1.14532        1.74705       -0.48268
O         -1.87925        2.97480       -0.26226
O         -1.87772        0.69502       -1.24446
O          0.23264        1.91499       -1.02682
O         -0.93085        1.10817        0.99358
H          1.57067        1.55921       -0.21861
H         -0.29315        0.34038        0.90714
S          0.78657       -2.01158       -0.09239
O          2.00167       -2.81162        0.04062
O          0.87517       -0.71596        0.66918
O         -0.48274       -2.72600        0.23661
H         -1.89901       -1.94064        0.23460
C          0.63781       -1.53507       -1.80978
H          1.55834       -1.02855       -2.10217
H          0.50939       -2.44625       -2.39526
H         -0.21222       -0.85832       -1.92294
N         -2.80064       -1.39174        0.14443
H         -2.54954       -0.52978       -0.41428
C         -3.35757       -1.02565        1.46663
H         -4.30400       -0.50236        1.33021
H         -3.50480       -1.92694        2.06150
H         -2.64658       -0.35969        1.95367
H         -3.45300       -1.95160       -0.39988
N          2.51372        1.69789        0.25341
C          3.50301        0.69938       -0.21967
C          2.32479        1.70877        1.72654
H          2.79371        2.62939       -0.05438
H          3.15814       -0.28914        0.08348
H          3.56635        0.75894       -1.30653
H          4.47614        0.91650        0.22434
H          2.04492        0.70050        2.02884
H          3.25529        2.01615        2.20695
H          1.51804        2.40176        1.96576
