36
1sa1msa2dma_234.log	Energy: -1025795.3358342
S         -1.16813        0.12495        0.25127
O         -0.06143        0.31413        1.20757
O         -2.24616        1.10675        0.33634
O         -0.56303        0.32242       -1.21608
O         -1.69446       -1.28016        0.29510
H          0.28673       -0.17631       -1.28164
H         -3.18225       -1.26602        0.02352
S          2.75211       -1.31556       -0.11954
O          4.03706       -0.69449       -0.35752
O          1.69572       -1.15114       -1.12823
O          2.19508       -0.88542        1.28944
H          1.28772       -0.43253        1.23555
C          2.99317       -3.05932        0.12560
H          3.41296       -3.45947       -0.79784
H          3.69087       -3.19068        0.95258
H          2.02786       -3.51387        0.34624
N         -4.24605       -1.16310       -0.17153
C         -4.40580       -0.39929       -1.43459
C         -4.87068       -0.50829        1.00441
H         -4.62236       -2.10301       -0.28609
H         -3.92609        0.56964       -1.29306
H         -3.90114       -0.93841       -2.23646
H         -5.46667       -0.28056       -1.66175
H         -4.37693        0.45409        1.14135
H         -5.94053       -0.37945        0.83072
H         -4.70037       -1.13103        1.88274
N          1.84987        3.77907       -0.05697
C          0.40523        3.66999        0.08443
C          2.50383        2.48064       -0.10971
H          2.07050        4.30330       -0.89638
H          0.17163        3.17010        1.02934
H         -0.04023        4.66903        0.11074
H         -0.07726        3.08857       -0.71918
H          2.38029        1.97619        0.85355
H          2.10272        1.81286       -0.89245
H          3.57538        2.60651       -0.28343
