38
1sa1msa1dma1eda_114.log	Energy: -1060556.5857707
S          0.30424       -1.78547       -0.39304
O          0.00195       -0.91794        0.92107
O          0.35798       -0.84208       -1.52292
O          1.62813       -2.42783       -0.15667
O         -0.80658       -2.75317       -0.43789
H          2.73166       -1.43518       -0.65224
H         -2.19552       -1.80606        0.02182
S         -1.00557        2.27586       -0.03620
O         -1.17032        3.65319        0.41279
O         -2.23320        1.43177        0.09520
O          0.17912        1.58325        0.58553
H          0.07969        0.08901        0.75271
C         -0.64711        2.30666       -1.78732
H         -1.50408        2.74707       -2.29809
H          0.23883        2.92547       -1.93819
H         -0.46940        1.27986       -2.11243
N         -2.90316       -1.12142        0.36680
C         -3.09202       -1.32274        1.81818
C         -4.13929       -1.21831       -0.43161
H         -2.49391       -0.15858        0.22719
H         -3.51902       -2.31129        1.99587
H         -2.11467       -1.24503        2.29323
H         -3.75764       -0.54745        2.20033
H         -4.58326       -2.20711       -0.30316
H         -4.83760       -0.44734       -0.10295
H         -3.89021       -1.05881       -1.48056
H          3.64750        1.41177       -0.92132
H          1.96675        0.82382       -0.74594
H          2.87229        1.62420        1.44467
H          2.47715       -0.08869        1.47668
H          5.16659        1.04624        1.40933
H          4.59644       -0.21418        2.27648
H          3.50536       -0.71488       -1.97389
H          4.34069       -0.88433       -0.51875
C          3.00479        0.65643       -0.45966
C          3.16898        0.64584        1.05431
N          3.43502       -0.68135       -0.95994
N          4.54457        0.24568        1.37555
