23
1sa1msa1ma_14.log	Energy: -916334.8323843
S         -2.36980       -0.22908       -0.12406
O         -3.70067       -0.39093       -0.64578
O         -1.72065        1.07248       -0.22156
O         -2.37805       -0.49849        1.47039
O         -1.47793       -1.35558       -0.68111
H         -2.83833       -1.33136        1.64861
H         -0.48588       -1.37112       -0.30170
S          1.94528       -0.63070       -0.01875
O          1.83069        0.04851       -1.31536
O          0.77908       -1.53163        0.27693
O          2.19233        0.31402        1.11240
H          1.23648        1.61342        0.94064
C          3.35340       -1.71668       -0.05864
H          3.19496       -2.44213       -0.85662
H          4.23824       -1.11143       -0.25579
H          3.43005       -2.21335        0.90828
N          0.54674        2.36555        0.64787
H         -0.33608        1.86980        0.41666
C          1.05158        3.08329       -0.54955
H          0.29577        3.78672       -0.89768
H          1.97100        3.60773       -0.29021
H          1.25938        2.33119       -1.31086
H          0.37125        2.99152        1.43041
