30
1sa1msa1a1dma_108.log	Energy: -976488.9783535
S          0.21468        2.14395        0.04578
O         -1.22170        2.28116        0.37017
O          1.03833        3.32422        0.20460
O          0.81861        1.10009        1.15072
O          0.40547        1.43429       -1.25748
H          0.23439        0.31119        1.15193
H          2.00207        0.96657       -1.25707
S         -2.10424       -1.04395        0.04448
O         -2.98726       -2.15643        0.30606
O         -0.74523       -1.09462        0.62705
O         -2.81078        0.27193        0.52415
H         -2.19245        1.08075        0.47372
C         -1.91719       -0.80925       -1.70786
H         -2.91018       -0.65728       -2.13100
H         -1.26732        0.05545       -1.86748
H         -1.46737       -1.71920       -2.10801
N          2.92052        0.56873       -0.91929
H          2.67368       -0.44025       -0.52393
H          3.23473        1.17171       -0.16021
H          3.61703        0.55229       -1.65819
N          2.11522       -1.79489        0.08523
C          2.57642       -1.91888        1.47185
C          2.40715       -2.98401       -0.71699
H          1.10294       -1.65328        0.10439
H          3.66509       -2.03342        1.48547
H          2.31375       -1.01190        2.02125
H          2.12954       -2.78224        1.98028
H          3.49051       -3.11414       -0.80343
H          1.98538       -3.89707       -0.27686
H          1.99307       -2.85827       -1.72080
