33
1sa1msa1ma1dma_142.log	Energy: -1001153.2458952
S         -0.38854       -1.27771       -0.33398
O          0.08333       -0.36035       -1.41373
O         -0.37971       -0.59320        0.97599
O         -1.68079       -1.91105       -0.65111
O          0.63894       -2.48948       -0.27803
H          1.55005       -2.11497       -0.21509
S          3.15469        0.32880        0.11709
O          4.45939        0.92666       -0.05409
O          2.99712       -1.11318       -0.10806
O          2.13585        1.10298       -0.81674
H          1.35759        0.51121       -1.08010
C          2.55051        0.68669        1.75163
H          3.21542        0.18114        2.45312
H          2.58974        1.76630        1.89756
H          1.53188        0.29909        1.82513
N         -1.61381        1.91978       -0.31538
H         -0.95696        1.78978        0.45151
C         -1.86750        3.34285       -0.56041
H         -0.95942        3.90800       -0.79977
H         -2.56692        3.44824       -1.39357
H         -2.32951        3.79011        0.32355
H         -1.14349        1.48901       -1.11170
N         -3.45135       -0.06549        0.29143
C         -3.52121       -0.22711        1.75815
C         -4.75559        0.06866       -0.38048
H         -2.82845        0.78014        0.06423
H         -4.11781       -1.10826        2.00101
H         -2.50218       -0.35877        2.12440
H         -3.97669        0.66168        2.19951
H         -5.35464       -0.82629       -0.20402
H         -5.27806        0.94367        0.01084
H         -4.58947        0.18903       -1.45145
H         -2.91376       -0.87222       -0.10443
