41
1sa1msa1tma1eda_35.log	Energy: -1085219.2167552
S          2.25403       -1.47301       -0.36738
O          1.47210       -2.39774       -1.20970
O          3.24117       -0.66732       -1.08861
O          1.40392       -0.70028        0.56470
O          3.09745       -2.42019        0.66523
H          3.69028       -2.97404        0.13963
S         -2.06410        1.56779       -0.35860
O         -1.17075        2.61818       -0.89221
O         -1.68119        1.10181        0.99397
O         -2.26855        0.43109       -1.30950
C         -3.67736        2.32483       -0.20374
H         -3.59645        3.15934        0.49340
H         -3.98723        2.67539       -1.18848
H         -4.37609        1.57806        0.17496
H         -0.86064       -2.93934        1.17287
H         -0.97782       -1.16225        1.26852
H         -3.03413       -2.23439        2.21645
H         -3.38144       -1.24511        0.79514
H         -3.30835       -4.17436        0.85973
H         -4.46604       -3.19020        0.25369
H         -0.25582       -2.12756       -0.92838
H         -1.85103       -2.67270       -1.06994
C         -1.40991       -2.05923        0.82662
C         -2.89697       -2.16676        1.12976
N         -1.24122       -1.96726       -0.64543
N         -3.46721       -3.29241        0.38434
H         -1.56165       -1.01693       -0.97283
N          1.93810        1.97181        0.51381
C          1.10560        2.86891        1.35611
H          0.13285        2.98284        0.87888
H          0.98591        2.41113        2.33819
H          1.61442        3.83202        1.44298
C          3.29775        1.78474        1.07984
H          3.20339        1.37240        2.08487
H          3.84158        1.08473        0.44483
H          3.80168        2.75306        1.11313
C          1.99184        2.42429       -0.90450
H          2.55348        1.68086       -1.47153
H          0.96701        2.50640       -1.27085
H          2.49182        3.39524       -0.93868
H          1.50881        1.01889        0.51435
