28
1sa1msa1eda_45.log	Energy: -975731.2489792
S          1.16984       -1.60435       -0.07408
O         -0.10769       -2.23424       -0.48846
O          1.04915       -0.74241        1.10535
O          2.09103       -2.83164        0.44343
O          1.88801       -0.98412       -1.20232
H          2.17731       -3.47283       -0.27541
H          0.17539        1.29096       -1.07430
S         -2.47763        0.28820        0.01868
O         -3.83175        0.77391       -0.11456
O         -1.38935        1.18026       -0.42047
O         -2.38083       -1.07310       -0.76227
H         -1.46382       -1.49961       -0.68976
C         -2.14090       -0.15490        1.70690
H         -2.23879        0.75759        2.29653
H         -2.88296       -0.89205        2.01320
H         -1.12336       -0.54977        1.76647
H          2.30430        3.34485       -1.08333
H          0.56041        3.56755       -0.74761
H          1.86290        3.49427        1.36523
H          0.77739        2.10668        1.25798
H          3.56402        2.00402        1.50321
H          2.53369        0.73022        1.25445
H          1.09413        1.76858       -2.37654
H          1.78862        0.88042       -1.15875
C          1.41622        2.89833       -0.63167
C          1.68316        2.55481        0.83257
N          1.11125        1.64162       -1.36667
N          2.81674        1.64821        0.92419
