38
1sa1msa1dma1eda_258.log	Energy: -1060545.5264183
S         -2.31046       -0.40129       -0.43018
O         -2.49670        1.01849       -0.71142
O         -1.58545       -1.15915       -1.48434
O         -1.76317       -0.69838        0.91071
O         -3.82368       -0.98150       -0.44284
H         -3.78311       -1.93979       -0.32015
S          1.41249       -1.95796        0.16882
O          1.31035       -2.34554        1.56478
O          1.42407       -0.51868       -0.12215
O          0.31748       -2.65845       -0.70953
H         -0.44141       -2.02786       -0.99301
C          2.87561       -2.69436       -0.52238
H          3.72873       -2.29828        0.02931
H          2.80339       -3.77414       -0.39244
H          2.93467       -2.42950       -1.57754
N         -0.11073        1.36225        1.67671
C         -1.23125        2.08140        2.31975
C          1.08495        1.21181        2.52707
H         -0.47381        0.43313        1.38659
H         -0.90972        3.09278        2.57626
H         -2.06047        2.11389        1.61229
H         -1.53807        1.54488        3.21833
H          1.46952        2.20037        2.78672
H          0.81680        0.66867        3.43443
H          1.83016        0.64390        1.97356
H          0.10853        1.87803        0.77270
H          2.30852        3.69496       -1.78377
H          2.76718        2.17138       -2.51924
H          0.38700        2.52129       -2.82835
H          0.65096        1.11493       -1.78655
H         -0.09459        3.77213       -0.80003
H         -1.05425        2.44202       -0.89898
H          2.47043        2.71969        0.34239
H          2.69168        1.21935       -0.26963
C          2.20958        2.60606       -1.68217
C          0.74182        2.20393       -1.83740
N          2.86128        2.20717       -0.44059
N         -0.09228        2.75612       -0.75783
