24
1sa1msa2a_45.log	Energy: -927172.8960197
S          2.17205        0.12933       -0.28353
O          3.45810       -0.47156       -0.56479
O          1.84632        1.39009       -0.98107
O          1.03398       -0.90660       -0.88244
O          1.83049        0.20656        1.17157
H          0.96152       -1.72380       -0.23489
H          0.93591        1.63660        1.46557
S         -2.18277       -0.01643       -0.01219
O         -2.09831        1.29783        0.64291
O         -1.93572       -1.18481        0.82350
O         -1.28163       -0.03192       -1.28852
H         -0.30682       -0.36644       -1.11913
C         -3.78762       -0.13933       -0.75718
H         -4.51896       -0.07437        0.04878
H         -3.90606        0.68710       -1.45741
H         -3.85344       -1.09994       -1.26687
N          0.41124        2.45231        1.05826
H          0.83539        2.49112        0.11093
H          0.54072        3.31294        1.57980
H         -0.58562        2.18465        0.97500
N          0.72900       -2.71053        0.94909
H         -0.23659       -2.54800        1.22766
H          1.33373       -2.35409        1.68460
H          0.88991       -3.70530        0.83975
