35
1sa1msa1ma1eda_144.log	Energy: -1035887.7977386
S         -1.75873       -1.28370        0.03570
O         -3.04576       -1.89989        0.42309
O         -0.67655       -2.24369       -0.22627
O         -1.93817       -0.30532       -1.08213
O         -1.36598       -0.41831        1.31334
H         -3.58239        0.24304       -0.97989
H         -0.48035        0.05331        1.16471
S          1.22033        1.83948       -0.05210
O          2.12983        2.84153        0.49272
O          0.88641        0.74050        0.92002
O          1.66554        1.23932       -1.34923
H          1.71580       -0.37254       -1.27089
C         -0.33563        2.64123       -0.41291
H         -0.70860        3.08348        0.51220
H         -0.14671        3.41593       -1.15676
H         -1.02030        1.88328       -0.79958
N         -4.45371        0.19849       -0.39345
H         -5.29609        0.24485       -0.96062
C         -4.39798        1.23019        0.67180
H         -5.24054        1.10108        1.35023
H         -3.46104        1.08843        1.21245
H         -4.42376        2.22052        0.21826
H         -4.31493       -0.75574        0.01777
H          3.90798        0.03444       -0.44122
H          4.56858       -1.50712       -1.01395
H          2.80003       -2.75325        0.19184
H          2.20956       -1.24094        0.92076
H          2.10939       -1.87110       -1.95055
H          0.82820       -1.75873       -0.86910
H          5.83242       -0.97871        0.85433
H          4.53453       -0.61695        1.77352
C          4.05900       -1.02097       -0.17283
C          2.70059       -1.67577        0.04852
N          4.86381       -1.22111        1.02664
N          1.78763       -1.41839       -1.09762
