27
1sa1msa1a1ma_89.log	Energy: -951830.8226473
S          1.40660        0.79186       -0.32706
O          1.32130        0.97363        1.14457
O          0.89877       -0.56731       -0.71950
O          0.75390        1.88920       -1.05984
O          2.91525        0.79713       -0.75358
H          3.31975       -0.14644       -0.57886
S         -2.56109       -0.52018       -0.09517
O         -2.72565        0.02326       -1.43136
O         -2.57383        0.45866        1.01212
O         -1.30526       -1.43729        0.01891
H         -0.39897       -1.00912       -0.30669
C         -3.83072       -1.71279        0.24585
H         -4.78046       -1.17766        0.22821
H         -3.79983       -2.47201       -0.53490
H         -3.64708       -2.14745        1.22779
N         -0.84632        2.59329        1.01213
H         -1.10832        3.48954        1.40880
H         -1.62901        1.90458        1.02518
H         -0.49156        2.67029        0.03807
H         -0.03918        2.14818        1.49410
N          3.67278       -1.64543       -0.26855
H          2.88815       -2.10433       -0.72554
C          3.62196       -1.87103        1.18332
H          3.65280       -2.93221        1.45489
H          4.46558       -1.36053        1.65274
H          2.70284       -1.42770        1.57258
H          4.52872       -2.01232       -0.67143
