24
1sa1msa2a_44.log	Energy: -927173.3546789
S         -1.99367       -0.47848       -0.00500
O         -1.53741        0.01860        1.30064
O         -2.41886        0.60081       -0.92124
O         -1.05943       -1.44491       -0.62414
O         -3.29672       -1.39907        0.24688
H         -4.00816       -0.83512        0.58004
S          2.25283       -0.37752       -0.00579
O          2.11394        0.98845        0.49666
O          3.55510       -0.82446       -0.44921
O          1.24038       -0.51968       -1.24111
H          0.34371       -0.93207       -0.99335
C          1.59328       -1.50439        1.20358
H          2.29002       -1.48411        2.04263
H          0.60202       -1.16043        1.50587
H          1.55105       -2.50049        0.76321
N         -0.16440        2.13504       -1.38767
H         -1.08405        1.65266       -1.45160
H          0.57071        1.43062       -1.51559
H         -0.07657        2.87022       -2.08248
H         -0.10443        2.51462       -0.36779
N         -0.14549        2.70354        1.26549
H          0.80214        2.49143        1.56774
H         -0.72911        1.91136        1.54476
H         -0.47028        3.53584        1.74509
