36
1sa1msa2dma_74.log	Energy: -1025813.5514300
S         -1.27275        1.11110        0.27462
O         -1.62996        0.32719        1.45637
O         -0.83777        2.49298        0.47656
O         -0.18316        0.39539       -0.53848
O         -2.52598        1.14805       -0.68033
H         -3.13877        0.32960       -0.45667
S          2.41013       -1.54124        0.04583
O          2.60867       -1.11835        1.42578
O          2.97835       -0.65695       -0.98402
O          0.90024       -1.82023       -0.25728
H          0.35814       -0.92561       -0.32204
C          3.07202       -3.17191       -0.17957
H          4.14327       -3.10478        0.01191
H          2.59206       -3.83722        0.53763
H          2.87837       -3.48616       -1.20448
N          2.01581        1.95205       -0.38419
C          1.91404        3.15722       -1.23187
C          2.28184        2.23222        1.04799
H          1.11211        1.41556       -0.45587
H          2.84445        3.72487       -1.17482
H          1.72509        2.84874       -2.26018
H          1.07462        3.75132       -0.86947
H          3.21811        2.78625        1.13691
H          1.44297        2.80884        1.43728
H          2.35708        1.27847        1.57241
H          2.71000        1.28315       -0.74190
N         -3.92011       -0.91448        0.05384
C         -3.29572       -2.12776       -0.47306
C         -5.36757       -0.87469       -0.13361
H         -3.68357       -0.82386        1.04009
H         -3.42638       -2.15711       -1.55875
H         -2.22643       -2.10342       -0.25274
H         -3.72861       -3.04184       -0.04325
H         -5.59012       -0.85636       -1.20452
H         -5.87336       -1.74346        0.31112
H         -5.76787        0.03733        0.31443
