39
1sa1msa1dma1tma_70.log	Energy: -1050473.6609246
S          0.10257       -1.70632       -0.15765
O          1.43742       -2.34596       -0.17643
O         -1.03507       -2.60566       -0.18175
O         -0.01219       -0.96683        1.29425
O          0.02817       -0.58383       -1.13777
H          0.76889       -0.37727        1.38102
H         -0.61450        0.78814       -0.36140
S          3.24811        0.58181        0.15402
O          4.43776        1.30207        0.54744
O          1.99555        0.85823        0.88262
O          3.56136       -0.95659        0.23124
H          2.73111       -1.52528        0.07306
C          2.92204        0.85183       -1.57421
H          2.75505        1.92183       -1.70677
H          3.80069        0.53153       -2.13403
H          2.03265        0.27664       -1.84345
N         -1.27251        1.55237       -0.08669
C         -1.30462        2.53735       -1.18144
C         -0.92643        2.11751        1.23200
H         -2.22634        1.04820       -0.02165
H         -0.33457        3.03200       -1.25873
H         -1.51972        2.01512       -2.11450
H         -2.07908        3.28178       -0.98504
H          0.09325        2.50419        1.21142
H         -1.63390        2.91255        1.47802
H         -0.99014        1.32059        1.97253
N         -3.64834        0.18081        0.05925
C         -4.79074        1.08840        0.11575
H         -4.71863        1.72143        1.00544
H         -4.79936        1.72993       -0.77090
H         -5.74718        0.54298        0.15648
C         -3.68706       -0.64565       -1.15232
H         -3.66297       -0.00056       -2.03618
H         -2.82016       -1.31002       -1.16908
H         -4.60305       -1.25584       -1.19078
C         -3.58190       -0.66251        1.25769
H         -2.71038       -1.31752        1.19701
H         -3.49247       -0.03027        2.14620
H         -4.48575       -1.28322        1.35988
