40
1sa1msa2eda_189.log	Energy: -1095281.2684714
S         -0.15026       -1.82517        0.50375
O         -1.36161       -2.60935        0.19122
O          1.05938       -2.63450        0.71421
O          0.21646       -1.00334       -0.85529
O         -0.37723       -0.79600        1.53420
H         -0.56282       -0.43850       -1.07064
H          2.59034        0.12505        0.77304
S         -3.33710        0.19481       -0.50354
O         -4.49819        0.79119       -1.12389
O         -2.01018        0.52830       -1.04973
O         -3.53210       -1.36911       -0.52515
H         -2.69484       -1.86635       -0.24986
C         -3.31099        0.58582        1.23131
H         -3.22526        1.67028        1.31462
H         -4.24897        0.24103        1.66626
H         -2.44533        0.09044        1.67807
H          2.13481        2.69890       -0.60531
H          0.98776        1.43882       -1.07373
H         -0.13702        3.61258       -1.11563
H         -0.81861        2.59221        0.14804
H          0.99396        4.85701        0.56675
H         -0.45026        4.56672        1.26837
H          1.66248        2.11409        1.68749
H          0.71808        0.86836        1.21323
C          1.22926        2.16244       -0.29039
C          0.07632        3.15292       -0.13948
N          1.53168        1.43068        0.94365
N          0.38728        4.12120        0.91340
H          3.77934       -1.84939       -1.13589
H          2.54384       -0.62492       -1.45389
H          4.79888        0.16506       -2.22869
H          4.18526        1.18077       -0.92062
H          6.25824       -0.86907       -0.64381
H          6.30167        0.69681       -0.17813
H          2.44535       -1.57588        0.77750
H          3.96449       -0.85552        1.09638
C          3.45331       -0.83504       -0.88928
C          4.55736        0.17839       -1.15762
N          3.10280       -0.79879        0.54927
N          5.69430       -0.10700       -0.28185
