32
1sa1msa1a1eda_226.log	Energy: -1011228.7046399
S          0.10830        1.59893        0.14460
O          0.13193        0.60197       -1.00412
O         -0.21232        0.88431        1.39528
O          1.30470        2.42107        0.16362
O         -1.10525        2.57730       -0.18370
H         -1.91067        2.03031       -0.32966
S         -3.02310       -0.72536       -0.28736
O         -4.03777       -1.61713       -0.80195
O         -3.10507        0.70602       -0.59282
O         -1.60832       -1.26203       -0.77174
H         -0.94610       -0.49496       -0.89922
C         -2.92720       -0.90125        1.48013
H         -3.87816       -0.55361        1.88586
H         -2.77807       -1.95677        1.70884
H         -2.09891       -0.28328        1.83232
N          0.77648       -1.94559        1.16566
H          0.97071       -2.55332        1.95420
H          0.01115       -2.35409        0.63312
H          0.42526       -1.05014        1.51852
H          3.69125        1.02021       -0.46160
H          2.96908        0.47734        1.04516
H          5.42489       -0.06704        0.97422
H          4.44516       -1.53310        1.07111
H          5.74594       -0.52808       -1.35316
H          5.84440       -2.01651       -0.68522
H          1.73427       -0.13365       -1.04022
H          3.03211       -1.21444       -1.34469
C          3.46216        0.13433        0.13463
C          4.70978       -0.69068        0.42291
N          2.50513       -0.70277       -0.63064
N          5.22515       -1.22944       -0.83642
H          1.99539       -1.36772        0.02186
