33
1sa1msa1ma1dma_13.log	Energy: -1001169.1344099
S         -2.75585        0.13330       -0.13496
O         -2.60067        1.22798       -1.11005
O         -2.63072       -1.21225       -0.73496
O         -1.94120        0.30956        1.07989
O         -4.27653        0.22791        0.42713
H         -4.88130        0.09734       -0.31589
S          2.66763        0.13529        0.07747
O          2.84763       -1.18770        0.69485
O          2.68797        1.29740        0.97810
O          1.40431        0.15010       -0.77394
C          3.99901        0.35126       -1.09268
H          3.96584       -0.46640       -1.81263
H          3.86999        1.31162       -1.59200
H          4.93595        0.33359       -0.53502
N         -0.20736        2.20751       -0.00592
H         -0.60472        1.79117        0.84537
H          0.45911        1.48261       -0.37276
C          0.45979        3.50402        0.22718
H          0.81116        3.89754       -0.72665
H         -0.24631        4.20306        0.67541
H          1.31142        3.33113        0.88450
H         -1.01150        2.24097       -0.65077
N         -0.08215       -2.07302       -0.03191
C         -0.06227       -2.29126        1.43444
C          0.54187       -3.16349       -0.80854
H         -1.06074       -1.90293       -0.34184
H          0.97747       -2.32409        1.76054
H         -0.58733       -1.45840        1.90146
H         -0.57630       -3.22776        1.65746
H          1.59005       -3.23507       -0.51498
H          0.02119       -4.10006       -0.60292
H          0.46790       -2.92474       -1.86963
H          0.43933       -1.19566       -0.25565
