33
1sa1msa1ma1dma_22.log	Energy: -1001168.5265164
S         -1.63581       -1.04913        0.50516
O         -1.11589       -2.39536        0.82318
O         -1.20731       -0.07153        1.71987
O         -0.97526       -0.50211       -0.70507
O         -3.09371       -0.87067        0.48509
H          1.40054       -1.00438       -0.67683
H         -2.80984        1.03647        0.11539
S          1.49310        1.44866        0.13330
O          0.30799        2.31448       -0.10241
O          1.92898        0.66498       -1.04803
O          1.34164        0.57483        1.33539
H         -0.23384        0.12100        1.67373
C          2.82513        2.57340        0.50964
H          2.96825        3.22739       -0.35073
H          2.54434        3.14971        1.39128
H          3.72375        1.98706        0.70164
N         -2.38658        1.89336       -0.28668
H         -2.77160        2.70589        0.18995
C         -2.61502        1.93492       -1.75057
H         -2.12677        2.81851       -2.16001
H         -2.16462        1.03227       -2.16076
H         -3.68561        1.95609       -1.95343
H         -1.35131        1.87038       -0.10710
N          1.36636       -2.03134       -0.49866
C          2.56045       -2.41600        0.27758
C          1.21155       -2.71303       -1.79929
H          0.50518       -2.20796        0.06072
H          3.45371       -2.20294       -0.31154
H          2.57170       -1.82032        1.19053
H          2.51107       -3.47954        0.51650
H          2.07102       -2.48061       -2.42986
H          1.13828       -3.78960       -1.63843
H          0.29642       -2.33864       -2.25731
