35
1sa1msa1ma1eda_289.log	Energy: -1035865.2175445
S         -0.81754        0.44163       -0.77905
O          0.11323        0.82560        0.30199
O         -1.77337        1.48352       -1.16483
O          0.05346        0.18404       -2.08356
O         -1.51425       -0.85114       -0.46839
H          0.84154       -0.36641       -1.85023
H         -3.04827       -0.59929       -0.78446
S          2.95876       -1.06589       -0.01246
O          4.06712       -0.14426       -0.14750
O          2.12073       -1.31790       -1.19440
O          2.02227       -0.67140        1.19891
H          1.26129       -0.08371        0.88765
C          3.55953       -2.62667        0.58215
H          4.26521       -2.99613       -0.16249
H          4.06121       -2.45566        1.53445
H          2.71590       -3.30647        0.69394
N          1.38830        3.64498        0.95353
H          1.25264        4.01907        1.88626
C          2.66610        2.94412        0.86141
H          2.80154        2.12584        1.58500
H          2.77331        2.51636       -0.13855
H          3.48533        3.65700        0.99852
H          0.63017        2.99390        0.77451
H         -4.97703       -1.95348        0.61389
H         -5.50316       -0.93481        1.95286
H         -5.71937        0.47577        0.06551
H         -4.18170        0.98032        0.81287
H         -4.53946       -0.64587       -1.61891
H         -3.65040        0.76575       -1.40002
H         -3.45702       -1.95027        2.59153
H         -2.63891       -1.28866        1.32236
C         -4.70230       -1.06870        1.21904
C         -4.70494        0.16011        0.31763
N         -3.44459       -1.18023        1.93455
N         -3.98028       -0.10561       -0.96234
