36
1sa1msa1ma1tma_102.log	Energy: -1025807.8170728
S         -0.41519       -1.31800        0.39539
O          0.79493       -2.09149        0.04132
O         -1.50672       -2.08472        0.97267
O          0.03161       -0.30715        1.58575
O         -0.83254       -0.41962       -0.72082
H          0.88768        0.10794        1.32695
H         -1.70618        0.81183       -0.18865
S          3.35512        0.18853       -0.11316
O          4.41244       -0.26010        0.76901
O          2.21012        0.88997        0.49818
O          2.81804       -0.97305       -1.02327
H          1.99896       -1.43841       -0.61779
C          4.04184        1.25130       -1.35923
H          4.46715        2.11295       -0.84410
H          4.82045        0.69636       -1.88256
H          3.24740        1.55090       -2.04146
N         -4.08898       -0.96859       -0.26405
H         -3.36043       -1.46076        0.25464
C         -3.94758       -1.28424       -1.68838
H         -4.08804       -2.34688       -1.92762
H         -4.67139       -0.70560       -2.27309
H         -2.94114       -1.00135       -2.00787
H         -4.97761       -1.31650        0.08223
N         -2.10509        1.73875        0.14335
C         -2.68856        1.52133        1.49215
H         -3.48901        0.78875        1.38655
H         -1.90842        1.12869        2.14442
H         -3.07240        2.47210        1.87072
C         -0.95700        2.67524        0.17895
H         -0.20939        2.28760        0.87007
H         -0.52039        2.73504       -0.81811
H         -1.30431        3.65946        0.50192
C         -3.13860        2.14642       -0.83773
H         -2.67713        2.21884       -1.82341
H         -3.90894        1.37327       -0.83647
H         -3.55080        3.11512       -0.54464
