24
1sa1msa2a_22.log	Energy: -927176.1396413
S          1.68849       -0.98701        0.03118
O          2.57492        0.05891        0.52564
O          0.86671       -1.71016        0.99782
O          0.85885       -0.49742       -1.13180
O          2.70601       -2.07033       -0.61695
H          2.23339       -2.90869       -0.70844
S         -2.41221        0.09803        0.04761
O         -3.80106        0.28004       -0.30957
O         -1.59725        1.29040        0.33246
O         -1.72934       -0.71484       -1.12590
H         -0.72153       -0.69449       -1.07925
C         -2.27609       -0.98588        1.44686
H         -2.71306       -0.46465        2.29928
H         -2.83735       -1.89191        1.21834
H         -1.21821       -1.20630        1.60780
N          0.57634        2.23724       -1.08690
H         -0.34186        2.12666       -0.62042
H          0.49066        2.79363       -1.93191
H          1.27808        2.65859       -0.40208
H          0.87335        1.26351       -1.30435
N          2.43921        2.98007        0.84022
H          3.29604        3.47489        0.61426
H          2.67902        2.00147        1.01424
H          2.07792        3.37224        1.70400
