38
1sa1msa1dma1eda_377.log	Energy: -1060531.2109193
S         -0.00250       -0.56365        0.60640
O         -1.09600       -1.49602        0.93636
O          1.34207       -1.13042        0.62912
O         -0.21350       -0.12569       -0.92835
O         -0.09438        0.70079        1.40010
H         -1.16040        0.12591       -1.05626
H          1.26049        1.41417        1.51189
S         -3.99065       -0.15608       -0.42120
O         -4.68885       -1.08396       -1.28605
O         -2.82968        0.56152       -0.97201
O         -3.57672       -0.83880        0.93734
H         -2.59503       -1.09994        0.95289
C         -5.14001        1.05256        0.18985
H         -5.53156        1.58625       -0.67655
H         -5.94047        0.52570        0.70920
H         -4.60884        1.72624        0.86095
N          3.93168       -2.03369       -0.75355
C          4.68039       -1.14137       -1.60670
C          4.54224       -2.24444        0.54071
H          2.96392       -1.74718       -0.64693
H          5.63683       -1.60262       -1.87973
H          4.12566       -0.95326       -2.53032
H          4.92039       -0.16340       -1.13790
H          5.49463       -2.77451        0.42141
H          4.75925       -1.30536        1.09060
H          3.88426       -2.85586        1.16163
H          4.12986        1.83210        0.69287
H          3.15485        0.33293        0.56468
H          3.30542        1.59232       -1.63238
H          1.65313        1.37753       -1.05611
H          3.16439        3.87041       -1.07612
H          1.57852        3.60794       -1.37926
H          2.59059        1.86523        2.48123
H          2.02606        2.92236        1.29907
C          3.13539        1.42070        0.49791
C          2.59734        1.89026       -0.85176
N          2.20667        1.93795        1.54240
N          2.35349        3.33476       -0.78743
