32
1sa1msa1a1eda_271.log	Energy: -1011225.6944582
S         -1.16301       -1.79931        0.00959
O         -1.33782       -1.21905       -1.33156
O          0.25741       -2.06264        0.36343
O         -1.89494       -1.11103        1.07573
O         -1.82317       -3.26725       -0.16940
H         -1.74629       -3.73617        0.67283
S          2.54294        0.39589       -0.16033
O          3.55731        1.32393        0.29073
O          1.49136        0.87261       -1.05836
O          1.88475       -0.23532        1.13712
H          1.19240       -0.92961        0.88220
C          3.29990       -1.01842       -0.93290
H          3.76591       -0.67283       -1.85613
H          4.04651       -1.41981       -0.24794
H          2.51629       -1.74950       -1.13915
N         -0.49441        1.05144        2.79881
H          0.49473        0.89631        2.62249
H         -0.98620        0.21857        2.47716
H         -0.62396        1.12759        3.80161
H         -2.52632        2.95992       -1.91767
H         -3.17729        1.29914       -1.83980
H         -3.52861        2.62671        0.32061
H         -2.60361        1.13662        0.54710
H         -1.55769        3.83149        0.72227
H         -1.07008        2.42482        1.48397
H         -0.71769        1.64807       -2.60826
H         -0.45039        1.89955       -0.98088
C         -2.44133        1.98889       -1.42294
C         -2.57318        2.13585        0.09943
N         -1.08026        1.45690       -1.67791
N         -1.40324        2.83822        0.60427
H         -1.05291        0.42011       -1.52771
