27
1sa1msa1a1ma_174.log	Energy: -951818.9417532
S         -1.72087       -0.38993       -0.60694
O         -0.63221        0.25920       -1.32975
O         -2.94384       -0.72098       -1.29725
O         -1.19294       -1.72721        0.03769
O         -2.03061        0.53782        0.61968
H         -0.27325       -1.59483        0.41073
H         -2.96078        0.27592        1.02808
S          2.41934       -0.77774        0.21540
O          3.46767       -1.75669        0.04818
O          1.19534       -1.16278        0.94160
O          1.99375       -0.27213       -1.23097
H          1.03140       -0.03609       -1.26325
C          3.05406        0.68481        0.98328
H          3.34965        0.40769        1.99631
H          3.91993        1.00857        0.40499
H          2.25119        1.43643        0.98555
N         -4.37472       -0.21159        1.43930
H         -4.35909       -0.95178        2.13441
H         -4.74824       -0.60001        0.57558
H         -5.00765        0.51336        1.76221
N          0.47219        2.65563        0.66239
H         -0.34996        2.05854        0.66530
C          0.62120        3.31733       -0.63382
H         -0.21283        3.97968       -0.90514
H          1.54248        3.90791       -0.63792
H          0.70887        2.55765       -1.41349
H          0.34175        3.34067        1.39924
