35
1sa1msa1ma1eda_84.log	Energy: -1035891.2539352
S          1.32320       -1.85051        0.08692
O          0.29029       -1.44661       -0.91400
O          2.66328       -1.43525       -0.33639
O          0.93968       -1.51552        1.45994
O          1.32536       -3.47417        0.09141
H          1.75854       -3.77174       -0.72013
S         -2.65607        0.11666       -0.22370
O         -2.43209        0.89851       -1.43874
O         -2.12213        0.67123        1.01868
O         -2.18307       -1.36520       -0.42122
H         -1.16870       -1.42773       -0.59530
C         -4.39737       -0.16985       -0.02951
H         -4.86215        0.80455        0.12314
H         -4.77283       -0.63996       -0.93778
H         -4.54530       -0.81141        0.83859
N          0.67373        1.29229        1.61051
H          1.68587        1.44348        1.40103
H          0.24721        1.61872        0.70595
C          0.16564        2.02774        2.77814
H         -0.90445        1.84502        2.86732
H          0.67805        1.68758        3.67869
H          0.34560        3.09441        2.63688
H          0.53221        0.27284        1.68776
H          1.42250        0.62550       -1.75322
H          1.45433        2.04205       -2.80229
H          3.57608        2.00152       -1.88211
H          2.75022        3.26279       -0.96344
H          3.18178        0.50856       -0.01891
H          3.98041        1.84188        0.49565
H          0.19969        3.21651       -1.13086
H         -0.56446        1.79944       -1.39755
C          1.46543        1.71904       -1.75147
C          2.78714        2.17962       -1.13741
N          0.28959        2.21039       -1.01925
N          3.08751        1.51507        0.14004
