36
1sa1msa1ma1tma_20.log	Energy: -1025824.7668001
S         -0.80935        1.66984       -0.55285
O         -0.39382        0.92200        0.65597
O          0.05503        1.07313       -1.76480
O         -2.23683        1.41793       -0.85440
O         -0.40424        3.08655       -0.52431
H         -2.33467       -0.05444        0.13068
H          1.31268        2.75363       -0.05377
S          1.80157       -1.51362       -0.09802
O          1.20328       -2.01777        1.14563
O          2.62580       -0.27931        0.06339
O          0.81100       -1.37510       -1.21393
H          0.30977        0.12237       -1.57907
C          2.95730       -2.75249       -0.66361
H          3.71535       -2.88384        0.10901
H          2.40924       -3.68114       -0.82426
H          3.40724       -2.40314       -1.59284
N          2.16111        2.33113        0.38177
H          2.19457        1.30051        0.14751
C          2.09775        2.47576        1.85483
H          2.97232        2.00017        2.29761
H          2.05711        3.53272        2.11846
H          1.19104        1.96795        2.18044
H          2.99046        2.76880       -0.01263
N         -2.66704       -0.99853        0.42792
C         -1.97423       -1.38380        1.68555
H         -0.90320       -1.47358        1.49157
H         -2.14578       -0.60351        2.42671
H         -2.38787       -2.33579        2.02834
C         -4.13044       -0.85943        0.60384
H         -4.32194       -0.15254        1.41142
H         -4.55748       -0.47258       -0.32171
H         -4.56092       -1.83354        0.84521
C         -2.32351       -1.91644       -0.68977
H         -2.79909       -1.54436       -1.59785
H         -1.23803       -1.91866       -0.81548
H         -2.68775       -2.91768       -0.44865
