33
1sa1msa1ma1dma_218.log	Energy: -1001135.5240740
S          0.35411       -0.51826       -0.76510
O         -0.73869       -0.23225       -1.70570
O          1.70996       -0.31398       -1.29612
O          0.26540        0.57191        0.41425
O          0.22005       -1.85050       -0.10752
H         -0.66907        0.62030        0.73351
H          1.72404       -2.25643        0.34210
S         -3.55289        0.47807        0.24944
O         -4.19140        1.75814        0.02935
O         -2.34167        0.44012        1.08304
O         -3.25696       -0.24866       -1.12000
H         -2.27410       -0.24393       -1.35344
C         -4.73210       -0.65235        0.94684
H         -5.05309       -0.23168        1.90016
H         -5.57315       -0.72744        0.25766
H         -4.24655       -1.61760        1.08498
N          2.76051       -2.08303        0.52449
H          3.29912       -2.94503        0.48913
C          2.91608       -1.35228        1.80702
H          3.96535       -1.10736        1.96788
H          2.32490       -0.43825        1.73926
H          2.53895       -1.97572        2.61683
H          3.00388       -1.47426       -0.27133
N          3.84241        1.66729       -0.34666
C          4.01840        2.20530        0.98285
C          4.82366        0.68041       -0.72154
H          2.90182        1.32395       -0.50793
H          4.95511        2.77276        1.03403
H          3.19875        2.88858        1.21679
H          4.06163        1.43510        1.77896
H          5.81308        1.14349       -0.81437
H          4.93861       -0.14869        0.01383
H          4.56095        0.25065       -1.69178
