36
1sa1msa2dma_68.log	Energy: -1025815.4502109
S          1.10034        0.68971        0.63093
O          2.22257        1.61775        0.53629
O          0.12209        0.92556        1.70012
O          0.35651        0.61197       -0.70730
O          1.65317       -0.76952        0.85916
H          2.53546       -0.92113        0.29398
S         -2.27539       -1.64958       -0.03600
O         -3.06224       -2.77943       -0.47871
O         -2.96724       -0.36003        0.13986
O         -1.09709       -1.46846       -1.06858
H         -0.50380       -0.65505       -0.88970
C         -1.46405       -2.03211        1.49769
H         -2.25200       -2.24614        2.22106
H         -0.83626       -2.90776        1.33634
H         -0.87029       -1.16921        1.80775
N         -1.88040        2.09831       -0.34860
C         -1.78112        3.22232        0.60689
C         -2.55717        2.41255       -1.62304
H         -0.92858        1.70234       -0.54751
H         -2.78516        3.55579        0.87449
H         -1.24146        2.86607        1.48430
H         -1.23024        4.03952        0.13878
H         -3.57532        2.74779       -1.42061
H         -2.00213        3.19495       -2.14248
H         -2.58535        1.50758       -2.23011
H         -2.35736        1.28269        0.07995
N          3.81626       -1.06380       -0.50933
C          4.88349       -0.39542        0.24451
C          3.59067       -0.45863       -1.82799
H          4.04506       -2.04713       -0.62496
H          4.56743        0.63062        0.44701
H          5.02627       -0.90595        1.19944
H          5.83415       -0.38329       -0.30513
H          3.28109        0.57874       -1.68169
H          4.49343       -0.48138       -2.45296
H          2.78169       -0.98740       -2.33641
