39
1sa1msa1dma1tma_16.log	Energy: -1050487.3544927
S         -2.65200       -0.53757       -0.16969
O         -2.93779        0.42845       -1.23178
O         -2.68133       -1.94852       -0.55095
O         -1.43284       -0.17573        0.61763
O         -3.81043       -0.33468        0.96820
H         -4.64493       -0.65468        0.59961
S          2.92794        0.08287        0.10104
O          3.13106        1.18287        1.05652
O          1.73773        0.27632       -0.77567
O          2.90387       -1.27523        0.72950
C          4.35599        0.07191       -0.97466
H          5.23937       -0.10800       -0.36153
H          4.23214       -0.72185       -1.71189
H          4.42290        1.04446       -1.46321
N          0.43582       -2.24181        0.23405
C         -0.06511       -3.27721        1.15876
C          0.42831       -2.64336       -1.19011
H         -0.15678       -1.39829        0.34137
H          0.54318       -4.17727        1.05584
H          0.00974       -2.89828        2.17820
H         -1.10760       -3.48850        0.91640
H          1.07709       -3.51226       -1.31445
H         -0.59582       -2.87590       -1.48401
H          0.81210       -1.80173       -1.76685
H          1.41041       -1.93739        0.49322
N         -0.66982        2.40054        0.09752
C         -1.98295        3.03599        0.37500
H         -2.72182        2.61234       -0.30525
H         -2.26673        2.81678        1.40482
H         -1.88814        4.11442        0.23068
C          0.38413        2.88684        1.02522
H          0.05391        2.70625        2.04890
H          1.31489        2.34558        0.84426
H          0.52292        3.95833        0.86296
C         -0.27752        2.55582       -1.32847
H          0.65953        2.01746       -1.47482
H         -1.06530        2.11718       -1.94211
H         -0.16490        3.62097       -1.54434
H         -0.80255        1.37687        0.26743
