23
1sa1msa1ma_19.log	Energy: -916335.7517359
S         -1.89946       -0.66579       -0.04872
O         -0.96633       -1.80480       -0.26976
O         -2.09853        0.22272       -1.18244
O         -3.33570       -1.36979        0.17982
O         -1.57007        0.05228        1.21030
H         -3.22076       -2.10450        0.79794
H         -0.75265        1.41894        0.78550
S          2.11939       -0.18627        0.02070
O          2.07795        0.56590        1.27172
O          1.52837        0.50328       -1.13639
O          1.50347       -1.61099        0.17680
H          0.48062       -1.65172        0.00034
C          3.79863       -0.61992       -0.34925
H          4.35192        0.31335       -0.45585
H          4.18829       -1.20788        0.48151
H          3.81047       -1.19033       -1.27733
N         -0.23693        2.20097        0.29728
H          0.45413        2.57251        0.94811
C         -1.18659        3.21081       -0.22102
H         -0.64431        3.97594       -0.77640
H         -1.88809        2.68998       -0.87235
H         -1.72024        3.66093        0.61553
H          0.29473        1.73490       -0.45843
