40
1sa1msa2eda_59.log	Energy: -1095296.4246512
S          3.07373       -0.44589        0.34456
O          3.12761        0.79418        1.14532
O          2.70934       -1.64434        1.10606
O          2.29314       -0.29256       -0.90613
O          4.58351       -0.67078       -0.21648
H          5.18091       -0.71340        0.54244
S         -2.51228        0.41471        0.34538
O         -2.94485       -0.45710       -0.76350
O         -2.76299        1.85287        0.16303
O         -1.06330        0.15356        0.70161
C         -3.42225       -0.09844        1.79339
H         -3.19682       -1.14972        1.97930
H         -3.10446        0.51738        2.63491
H         -4.48410        0.04586        1.59159
H         -1.15930       -1.93523       -1.92872
H          0.14928       -3.12371       -2.14833
H         -2.00555       -4.23121       -1.70280
H         -0.83356       -4.58639       -0.43014
H         -2.88406       -2.49337       -0.17324
H         -2.89004       -3.95833        0.59795
H          0.95664       -1.39740       -0.75658
H         -0.40547       -1.36782        0.18308
C         -0.55942       -2.70209       -1.43219
C         -1.45531       -3.78966       -0.85736
N          0.20635       -2.00827       -0.36978
N         -2.29816       -3.24217        0.19469
H          0.67835       -2.64011        0.27953
H          1.78066        3.41425       -0.86140
H          1.34086        1.81076       -1.49162
H         -0.13577        3.77509       -2.32957
H         -1.02729        2.43514       -1.60711
H         -1.00202        5.07617       -0.68212
H         -1.79094        3.76244       -0.06262
H          1.68509        1.80825        0.89548
H          0.41796        2.96109        1.03241
C          0.99491        2.65533       -0.89428
C         -0.32503        3.24582       -1.39028
N          0.79890        2.17432        0.49653
N         -0.88983        4.12330       -0.36372
H          0.08858        1.40652        0.53962
