26
1sa1msa1dma_23.log	Energy: -940998.0777131
S          1.95663       -0.78912        0.03313
O          2.74388        0.05474        0.92449
O          0.98500       -1.67175        0.73691
O          1.31494       -0.06631       -1.08826
O          2.96610       -1.79562       -0.73059
H          3.49007       -2.26397       -0.06590
S         -2.29556       -0.49162        0.02098
O         -2.16520        0.86087       -0.55044
O         -3.60756       -0.88689        0.48130
O         -1.27658       -0.61054        1.22519
H         -0.38555       -1.06399        1.01114
C         -1.68198       -1.64984       -1.18167
H         -2.38872       -1.62767       -2.01200
H         -0.68773       -1.33014       -1.49970
H         -1.65508       -2.63894       -0.72448
N          0.17686        2.23012       -0.16433
C          0.43007        2.36564        1.29061
C          0.44778        3.45039       -0.95029
H          0.74491        1.43497       -0.53946
H         -0.14244        3.21187        1.67313
H          0.10629        1.44785        1.78088
H          1.49765        2.50906        1.45521
H         -0.20370        4.25483       -0.60615
H          1.49245        3.73394       -0.81675
H          0.25467        3.24262       -2.00259
H         -0.79800        1.89758       -0.30959
