41
1sa1msa1tma1eda_220.log	Energy: -1085194.5156042
S         -1.32114       -0.16927       -1.13680
O         -2.49420       -0.41015       -1.96677
O         -0.01270       -0.27539       -1.80826
O         -1.42941        1.11077       -0.36399
O         -1.37550       -1.33899       -0.03115
H         -2.86220        1.46033       -0.03599
H         -0.51525       -1.37208        0.45850
S          2.25111       -1.85960        0.39271
O          2.45532       -3.29344        0.41082
O          1.06431       -1.32011        1.08096
O          2.24230       -1.33369       -1.10048
H          1.35003       -0.94326       -1.35900
C          3.68100       -1.04045        1.03808
H          3.76916       -1.33787        2.08394
H          4.54343       -1.38976        0.46922
H          3.53436        0.04347        0.92753
H         -5.84033        0.97754       -0.09261
H         -4.57976        0.27162       -1.16141
H         -5.32933       -1.32439        0.66614
H         -3.60346       -0.96587        0.69555
H         -5.59616       -0.01407        2.59802
H         -4.04924       -0.48476        2.84884
H         -4.13736        2.58447       -0.21375
H         -3.94934        1.78057        1.25114
C         -4.81702        0.59445       -0.14740
C         -4.59485       -0.53429        0.85804
N         -3.89138        1.70098        0.22521
N         -4.65818        0.01791        2.21479
N          3.10919        2.07421        0.30692
C          1.66279        2.16801        0.17478
H          1.29625        1.41106       -0.51999
H          1.18615        1.99165        1.14272
H          1.34061        3.15746       -0.20129
C          3.62573        3.07568        1.22066
H          3.14396        2.96795        2.19729
H          4.70402        2.94128        1.35372
H          3.44839        4.10779        0.86100
C          3.76326        2.14664       -0.98848
H          4.84355        2.01731       -0.86574
H          3.39225        1.34458       -1.63256
H          3.58694        3.11309       -1.49759
