42
1sa1msa2tma_02.log	Energy: -1075147.7245982
S          0.15095       -1.81558       -0.81225
O          0.33672       -1.16728        0.52694
O          0.49103       -0.68499       -1.88319
O          1.10508       -2.88203       -1.08502
O         -1.28128       -2.17520       -0.98325
H         -2.17951       -1.26199        0.00828
S         -0.15812        2.41222       -0.17119
O          1.29851        2.20258       -0.02168
O         -0.91546        2.40529        1.09443
O         -0.76378        1.49126       -1.19234
H          0.01373        0.16842       -1.64420
C         -0.35305        4.04672       -0.87053
H          0.18604        4.08225       -1.81745
H         -1.41653        4.22919       -1.02675
H          0.05910        4.76722       -0.16331
N          2.89989       -0.46000        0.72616
C          3.40813       -0.00683       -0.59606
H          3.13768       -0.75431       -1.34199
H          2.92230        0.93939       -0.83231
H          4.49364        0.10477       -0.53287
C          3.15614        0.53823        1.79212
H          2.67194        1.47089        1.50072
H          2.72185        0.17057        2.72287
H          4.23504        0.66719        1.90929
C          3.41324       -1.80764        1.07357
H          2.98202       -2.11070        2.02817
H          3.09303       -2.50687        0.29938
H          4.50269       -1.76857        1.14680
H          1.85060       -0.57519        0.63977
N         -2.94383       -0.84486        0.61045
C         -3.55865        0.25744       -0.17148
H         -2.77348        0.96904       -0.43157
H         -3.98944       -0.16292       -1.08117
H         -4.33502        0.73234        0.43304
C         -3.89191       -1.95649        0.84644
H         -4.22447       -2.34777       -0.11548
H         -3.37776       -2.74609        1.39499
H         -4.74459       -1.58939        1.42233
C         -2.33835       -0.35337        1.87583
H         -1.74980       -1.16151        2.30935
H         -1.69286        0.49864        1.65315
H         -3.14373       -0.05216        2.55134
