40
1sa1msa2eda_100.log	Energy: -1095293.6561233
S          2.41144       -1.69875        0.16017
O          3.26550       -0.80420        0.94043
O          1.62567       -2.66817        0.93205
O          1.57324       -0.97164       -0.84330
O          3.39160       -2.55815       -0.81664
H          3.99786       -3.06223       -0.25708
S         -2.36662        1.55380       -0.11378
O         -3.24423        0.59707       -0.81549
O         -1.62043        2.49097       -0.96992
O         -1.42495        0.83408        0.83031
C         -3.42123        2.53168        0.94455
H         -4.11182        3.08489        0.30744
H         -3.96354        1.85838        1.60875
H         -2.79684        3.21664        1.51831
H          1.67005        3.00644        1.44034
H          2.31125        1.35036        1.64743
H          4.10228        2.88396        0.85379
H          3.75427        1.59999       -0.30230
H          2.95873        4.40864       -0.57621
H          3.66697        3.42614       -1.67768
H          0.15316        1.42502        0.43397
H          0.90365        2.32394       -0.75681
C          2.09477        2.13955        0.92649
C          3.34900        2.51154        0.14690
N          1.07121        1.63515       -0.01710
N          3.00209        3.45393       -0.91499
H          1.37946        0.74439       -0.45538
H         -2.28836       -1.48583       -1.60093
H         -1.47005       -3.07174       -1.61193
H         -3.88938       -3.22849       -1.01065
H         -2.83781       -3.85011        0.26689
H         -3.92270       -1.11506        0.30639
H         -4.42647       -2.37084        1.26339
H         -0.10864       -1.46192       -0.51676
H         -1.34530       -0.96230        0.48144
C         -1.96640       -2.32833       -0.98499
C         -3.15275       -2.93350       -0.24724
N         -0.96770       -1.78503       -0.03119
N         -3.64402       -1.99137        0.74534
H         -0.63667       -2.47521        0.64727
