38
1sa1msa1dma1eda_327.log	Energy: -1060541.1151773
S         -2.74424       -0.07015       -0.66895
O         -3.51206       -1.25575       -1.00194
O         -3.09170        0.58073        0.61511
O         -1.26500       -0.19387       -0.76291
O         -3.04535        1.03269       -1.83201
H         -3.97203        0.94207       -2.09169
S          1.72143       -1.72823       -0.25366
O          1.45337       -3.13539       -0.02400
O          1.45963       -0.81173        0.86765
O          0.96077       -1.20707       -1.54218
H          0.02044       -0.92475       -1.33211
C          3.38912       -1.48605       -0.79680
H          4.02895       -1.94416       -0.04140
H          3.51003       -1.98708       -1.75711
H          3.56442       -0.40636       -0.85085
N         -0.78039        0.23802        2.07599
C         -0.29202        1.22846        3.05432
C         -1.06798       -1.09885        2.64272
H         -1.64228        0.57020        1.59174
H          0.60040        0.83137        3.54043
H         -0.03815        2.13920        2.51236
H         -1.06854        1.41974        3.79636
H         -0.15189       -1.50748        3.06890
H         -1.84513       -1.00581        3.40227
H         -1.41323       -1.74683        1.83739
H         -0.06479        0.11724        1.33962
H          2.56474        3.73482       -0.03350
H          3.39338        3.04879       -1.43786
H          1.07336        3.09416       -1.98744
H          1.47463        1.40447       -1.66030
H         -0.06127        3.19303        0.03555
H         -0.40801        1.67953       -0.47279
H          4.05136        2.03461        0.73923
H          2.56563        1.33434        0.78418
C          2.70805        2.80915       -0.61674
C          1.36330        2.38936       -1.19544
N          3.27883        1.71467        0.16559
N          0.34480        2.27928       -0.14264
