38
1sa1msa1dma1eda_98.log	Energy: -1060558.6948928
S          2.20387       -1.12786       -0.58826
O          1.26791       -2.37603       -0.36162
O          3.38397       -1.58985       -1.26727
O          1.40847       -0.05301       -1.18711
O          2.60566       -0.66218        0.85299
H          1.77215       -0.33863        1.45187
S         -2.15348       -0.99738        0.15514
O         -1.89928       -0.65548       -1.26706
O         -2.54445        0.16619        0.97424
O         -1.00379       -1.74431        0.76662
H          0.35994       -2.11127       -0.02395
C         -3.51739       -2.14370        0.15951
H         -4.37963       -1.64425       -0.28240
H         -3.23144       -3.01553       -0.42907
H         -3.72001       -2.42319        1.19338
N         -0.70045        1.81634       -1.40673
C         -1.90188        2.61693       -1.09398
C         -0.08469        2.12001       -2.71491
H          0.01625        1.97641       -0.65436
H         -2.62864        2.50392       -1.89988
H         -2.33333        2.23296       -0.16826
H         -1.61999        3.66660       -0.98964
H         -0.80846        1.91576       -3.50537
H          0.20379        3.17298       -2.74162
H          0.78885        1.48003       -2.83239
H         -0.96943        0.80673       -1.37975
H          2.02721        2.36643        2.56758
H          0.66085        3.43302        2.21719
H         -0.24882        1.62147        3.42912
H         -0.76574        1.39458        1.76498
H          1.03352       -0.24154        3.30065
H         -0.05124       -0.65156        2.13214
H          1.92021        3.20937        0.26427
H          1.89184        1.58638        0.28872
C          1.09908        2.45716        1.98398
C          0.10899        1.38568        2.42053
N          1.35104        2.41357        0.53668
N          0.67848        0.02211        2.38571
