38
1sa1msa1dma1eda_185.log	Energy: -1060549.2142099
S         -2.52296       -0.70623       -0.31593
O         -3.09234       -2.02439       -0.54942
O         -2.08533       -0.40224        1.05867
O         -1.45891       -0.35776       -1.30547
O         -3.70537        0.38960       -0.54545
H         -4.21220        0.12462       -1.32510
S          0.39212        2.31124        0.19215
O          1.21208        3.47924       -0.05098
O          0.98600        1.18023        0.91319
O         -0.12247        1.81367       -1.21846
H         -0.68429        0.96311       -1.18024
C         -1.09694        2.77322        1.04621
H         -0.79268        3.19193        2.00634
H         -1.61276        3.52204        0.44549
H         -1.70520        1.87703        1.18716
N          0.45674       -1.62212        1.18173
C          1.29386       -1.51091        2.39372
C          0.02870       -3.00387        0.87789
H         -0.38867       -1.03093        1.27642
H          2.24915       -2.00254        2.20965
H          1.46637       -0.45477        2.59234
H          0.76974       -1.97255        3.23299
H          0.91526       -3.61865        0.71243
H         -0.55298       -3.39900        1.71158
H         -0.59588       -2.99381       -0.01619
H          0.95813       -1.25852        0.31779
H          3.80175        0.39814       -1.54743
H          4.84685       -0.98260       -1.20384
H          3.03875       -1.58682       -2.74289
H          2.95832       -2.51724       -1.23259
H          1.35064       -0.08905       -1.64185
H          0.77752       -1.57696       -1.92403
H          4.45431       -0.07466        0.85884
H          2.87143        0.19789        0.59709
C          3.84658       -0.57406       -1.02897
C          2.83384       -1.51783       -1.66509
N          3.62864       -0.45801        0.41193
N          1.46810       -1.06598       -1.38118
