38
1sa1msa1dma1eda_214.log	Energy: -1060546.3550383
S          1.72978       -1.70761        0.05809
O          1.48339       -2.76592        1.02489
O          0.80522       -1.76346       -1.12781
O          1.88210       -0.34787        0.57661
O          3.18580       -1.98996       -0.61894
H          3.20225       -2.91269       -0.90620
S         -2.30365       -0.69162       -0.07302
O         -2.83661        0.53563       -0.65953
O         -1.41404       -0.52500        1.08535
O         -1.62216       -1.57153       -1.14979
H         -0.54949       -1.65676       -1.06493
C         -3.66960       -1.71664        0.41535
H         -4.25242       -1.15796        1.14796
H         -4.26591       -1.92890       -0.47191
H         -3.26850       -2.63274        0.84807
N          0.30536        1.62912        1.62956
C         -0.86088        2.52970        1.71443
C          1.04137        1.44258        2.89526
H         -0.01732        0.70669        1.30084
H         -0.53192        3.50551        2.07814
H         -1.29010        2.63126        0.71628
H         -1.59912        2.10395        2.39485
H          1.45405        2.40128        3.21559
H          0.35758        1.06066        3.65522
H          1.83703        0.72110        2.71295
H          0.95374        2.00825        0.87792
H          1.97740        2.59420       -2.55561
H          2.37968        1.22382       -1.49490
H          0.29370        0.80870       -2.75679
H          0.07110        0.78055       -1.02264
H         -0.77722        2.94104       -2.79665
H         -1.65447        2.06697       -1.72600
H          2.58963        3.29919       -0.31203
H          1.01698        3.66592       -0.63058
C          1.66956        2.03811       -1.65699
C          0.28204        1.44545       -1.86221
N          1.66853        2.90157       -0.46375
N         -0.74380        2.49036       -1.88754
