42
1sa1msa2tma_21.log	Energy: -1075136.6700902
S          0.37855       -1.27089       -0.65256
O          0.59515       -0.30410       -1.73114
O          0.12084       -0.58933        0.66583
O         -0.69752       -2.26083       -0.91407
O          1.68213       -2.12326       -0.45786
H          2.46484       -1.47847       -0.15338
S         -0.89732        2.68340        0.07984
O         -1.01985        4.01019        0.64965
O         -2.08505        1.82668        0.01756
O          0.23494        1.92393        0.87957
H          0.16867        0.90780        0.75594
C         -0.21869        2.80521       -1.55921
H         -0.96259        3.30607       -2.18012
H          0.69239        3.40101       -1.49861
H         -0.00936        1.79317       -1.91410
N         -2.96228       -1.64691        0.30477
C         -3.71036       -0.83745       -0.69040
H         -3.21077        0.12630       -0.79394
H         -3.70660       -1.36963       -1.64217
H         -4.73465       -0.69516       -0.33747
C         -3.54045       -2.99947        0.46876
H         -3.55108       -3.49735       -0.50110
H         -2.91493       -3.56836        1.15703
H         -4.55565       -2.91544        0.86353
C         -2.82564       -0.93694        1.60229
H         -2.15525       -1.51005        2.24211
H         -2.40082        0.04806        1.41274
H         -3.81442       -0.84713        2.05947
H         -1.99494       -1.80373       -0.10613
N          3.57174       -0.55350        0.33785
C          3.37821       -0.38934        1.78111
H          2.38353        0.02175        1.96355
H          3.44355       -1.36525        2.26844
H          4.13648        0.28049        2.21417
C          4.84893       -1.20095        0.03987
H          4.88394       -2.18021        0.52380
H          4.94137       -1.34393       -1.03949
H          5.69986       -0.59825        0.39316
C          3.45605        0.73324       -0.35695
H          3.48570        0.56667       -1.43588
H          2.50029        1.19814       -0.10838
H          4.27106        1.41401       -0.06699
