40
1sa1msa2eda_22.log	Energy: -1095296.1122644
S          3.00190       -0.18983       -0.36788
O          2.86043        1.01161       -1.21932
O          2.23611       -0.10850        0.88007
O          2.81201       -1.45453       -1.11089
O          4.54899       -0.20786        0.13369
H          5.11442       -0.32330       -0.64182
S         -2.58623        0.03025       -0.53756
O         -2.96498        1.19034        0.28123
O         -3.04105       -1.28330       -0.05360
O         -1.09297        0.01888       -0.80792
C         -3.32875        0.26370       -2.14694
H         -4.41055        0.28737       -2.01220
H         -2.97391        1.20796       -2.56085
H         -3.03888       -0.56946       -2.78744
H          0.84420        4.12830       -0.24138
H         -0.44340        3.44594       -1.25583
H         -1.39641        4.73992        0.67788
H         -1.84589        3.02502        0.72380
H          0.07237        4.34130        2.48644
H         -1.06438        3.20659        2.82423
H          1.43295        1.85878       -0.56361
H          0.78074        1.96948        0.96664
C          0.01259        3.41846       -0.26416
C         -1.01061        3.72331        0.82859
N          0.56407        2.06643       -0.03254
N         -0.38937        3.51086        2.13436
H         -0.12539        1.31723       -0.27670
H          1.03955       -3.58817        1.19843
H          0.90206       -1.88083        1.67869
H         -0.90850       -3.46089        2.66181
H         -1.53714       -2.04647        1.80999
H         -2.00783       -4.71844        1.12477
H         -2.53315       -3.34351        0.37365
H          1.23961       -2.16823       -0.70253
H         -0.22923       -3.05807       -0.74447
C          0.40681       -2.69787        1.15300
C         -0.99884       -2.98974        1.67790
N          0.30242       -2.31578       -0.27765
N         -1.71732       -3.83701        0.72405
H         -0.23614       -1.42911       -0.40635
