29
1sa1msa1tma_01.log	Energy: -965664.0430507
S         -2.30164        0.50265       -0.03304
O         -3.52509        1.24563        0.06993
O         -1.11178        1.12766       -0.60711
O         -1.92072        0.00393        1.42233
O         -2.60110       -0.82258       -0.82696
H         -1.75613       -1.35145       -0.93240
S          0.84007       -1.72118       -0.07968
O          1.76823       -0.83319       -0.82958
O         -0.33576       -2.15983       -0.86436
O          0.46705       -1.11179        1.23386
H         -1.02574       -0.44684        1.40611
C          1.75479       -3.20096        0.29530
H          2.04031       -3.66676       -0.64789
H          2.63577       -2.92286        0.87371
H          1.10530       -3.86030        0.87086
N          1.82412        1.74623       -0.04846
C          3.29428        1.61738        0.09940
H          3.50154        0.86973        0.86443
H          3.71464        1.28320       -0.84876
H          3.71416        2.58381        0.38612
C          1.45746        2.71496       -1.11263
H          1.92589        2.39852       -2.04497
H          0.37428        2.70667       -1.22381
H          1.81581        3.70685       -0.82806
C          1.17356        2.06537        1.24931
H          0.10483        2.17521        1.07827
H          1.34566        1.23415        1.93299
H          1.60491        2.98990        1.64002
H          1.50784        0.79391       -0.35708
