24
1sa1msa2a_15.log	Energy: -927177.1477352
S          2.24894       -0.56870        0.05885
O          2.43649        0.27771        1.24727
O          2.45487       -1.99771        0.20784
O          0.96597       -0.21378       -0.63894
O          3.40092       -0.02830       -0.95888
H          3.62832       -0.75709       -1.55168
S         -2.28537       -0.29026       -0.01260
O         -2.46327        0.74293       -1.02786
O         -1.95084        0.17934        1.33930
O         -1.25826       -1.37492       -0.48189
H         -0.30530       -0.98380       -0.54615
C         -3.74643       -1.28988        0.08043
H         -4.55908       -0.63130        0.38785
H         -3.93611       -1.70746       -0.90783
H         -3.57973       -2.07463        0.81756
N          0.27654        1.95249        1.47955
H          0.19711        2.36252        0.49368
H          1.13993        1.36297        1.50749
H          0.30649        2.67655        2.19050
H         -0.54339        1.33981        1.61553
N          0.02197        2.57400       -1.20133
H         -0.91352        2.23034       -1.41767
H          0.66941        1.86340       -1.53893
H          0.18078        3.43369       -1.71505
