40
1sa1msa2eda_57.log	Energy: -1095294.7320322
S         -2.21809       -1.42932       -0.50369
O         -2.90693       -0.32790       -1.18200
O         -1.49545       -2.35286       -1.39692
O         -1.39613       -0.98814        0.64965
O         -3.36840       -2.32231        0.22766
H         -3.95213       -2.67226       -0.45892
S          2.26872        1.32912       -0.60781
O          2.66560        0.01817       -1.18508
O          2.00679        1.22918        0.86352
O          1.14378        1.97670       -1.31877
C          3.68573        2.39287       -0.79901
H          3.44886        3.35981       -0.35524
H          4.53237        1.93120       -0.29084
H          3.88514        2.49659       -1.86565
H         -1.66769        2.79195        2.21854
H         -0.85840        3.75533        0.94961
H         -3.29729        3.94882        0.76707
H         -2.65121        3.13647       -0.65836
H         -4.67431        2.16327        0.75755
H         -3.59615        1.13173        0.07553
H          0.15648        1.57743        1.14650
H         -1.28167        0.79515        0.82563
C         -1.50065        2.89255        1.14455
C         -2.83618        3.01870        0.42097
N         -0.76598        1.68752        0.69196
N         -3.69950        1.89394        0.74397
H         -0.49996        1.75763       -0.30352
H          1.43768       -3.81214        0.75038
H          2.53914       -3.52102       -0.62267
H          3.58939       -3.10224        1.66939
H          3.66670       -1.72200        0.56707
H          2.52676       -1.69605        3.07826
H          2.28668       -0.54833        1.91010
H          0.31928       -2.43314       -0.92184
H          0.55524       -1.62614        0.47425
C          2.01817       -3.05589        0.21724
C          2.98705       -2.34147        1.16399
N          1.06431       -2.05647       -0.31362
N          2.23393       -1.54235        2.12384
H          1.57696       -1.29039       -0.80285
