38
1sa1msa1dma1eda_73.log	Energy: -1060563.8178361
S          0.16820       -1.71508       -0.63804
O         -0.47176       -3.02838       -0.49403
O         -0.82436       -0.97993       -1.68506
O          0.10580       -0.90811        0.60465
O          1.52395       -1.67834       -1.22533
H         -2.18466       -0.38545        0.46774
H          2.03129       -0.00224       -0.61160
S         -0.92396        2.13990       -0.11168
O          0.19491        2.31152        0.84994
O         -2.07504        1.36435        0.41860
O         -0.44020        1.63227       -1.42763
H         -0.64408       -0.00197       -1.69057
C         -1.56277        3.77648       -0.42229
H         -2.37025        3.69421       -1.14995
H         -1.93023        4.18224        0.52049
H         -0.75130        4.38889       -0.81564
N         -2.66606       -1.29724        0.64494
C         -3.96556       -1.27787       -0.05402
C         -2.73927       -1.47395        2.10974
H         -2.06412       -2.03715        0.24795
H         -4.55410       -0.44078        0.32269
H         -3.77320       -1.14484       -1.11830
H         -4.48828       -2.21985        0.11938
H         -3.30182       -0.64232        2.53536
H         -3.22671       -2.42272        2.33949
H         -1.71805       -1.46551        2.48970
H          3.22189        0.92880        1.91799
H          2.20868       -0.51514        1.65631
H          4.65254       -1.12653        1.65473
H          3.87867       -1.44185        0.09531
H          5.71285        0.75998        0.68746
H          5.69883       -0.25910       -0.59249
H          1.53408        1.34911        0.28153
H          3.06812        1.30011       -0.47086
C          2.96814        0.13086        1.21459
C          4.20091       -0.64796        0.77615
N          2.35494        0.75662        0.01972
N          5.10782        0.24815        0.05458
