30
1sa1msa1a1dma_89.log	Energy: -976493.0015865
S          1.70985       -1.35074       -0.01067
O          2.86711       -1.28616        0.87638
O          0.42242       -1.35670        0.74626
O          1.69062       -0.38247       -1.11786
O          1.77761       -2.77979       -0.77857
H          2.06816       -3.44354       -0.13817
S         -2.63025       -0.06585        0.06004
O         -2.07261        0.90924       -0.89320
O         -2.64464        0.34255        1.45582
O         -1.93455       -1.45639       -0.12892
H         -0.95144       -1.44482        0.18829
C         -4.26718       -0.48573       -0.47820
H         -4.85921        0.42848       -0.42940
H         -4.20998       -0.86012       -1.49972
H         -4.66277       -1.24126        0.19990
N          3.59062        1.67894        0.08193
H          4.41917        2.20849        0.33392
H          3.72000        1.35127       -0.87153
H          3.58697        0.83107        0.64859
N          0.44315        1.93657       -0.21167
C          0.47513        1.97454        1.27083
C          0.77658        3.22479       -0.85235
H          1.09890        1.20086       -0.54317
H         -0.27635        2.68258        1.62221
H          0.24640        0.97637        1.64548
H          1.47775        2.27338        1.57578
H          0.07568        3.98707       -0.50865
H          1.80038        3.47925       -0.57654
H          0.69608        3.10931       -1.93352
H         -0.49451        1.61461       -0.51613
