36
1sa1msa2dma_149.log	Energy: -1025811.5555420
S          0.80270       -1.32398       -0.60628
O          0.79692       -0.35430       -1.70239
O          0.44035       -0.69064        0.70853
O         -0.04776       -2.52223       -0.83399
O          2.25717       -1.89664       -0.43548
H          2.89861       -1.11019       -0.18920
S         -1.44476        2.16291        0.04929
O         -1.92918        3.42183        0.57825
O         -2.34485        1.00574        0.03533
O         -0.13966        1.77881        0.85612
H          0.07946        0.78561        0.76332
C         -0.83838        2.40897       -1.60366
H         -1.69623        2.66636       -2.22638
H         -0.12450        3.23251       -1.57673
H         -0.36298        1.48159       -1.93174
N         -2.31583       -2.49397        0.47419
C         -3.31635       -1.99395       -0.50229
C         -2.30807       -1.74955        1.75980
H         -2.47777       -3.48421        0.65356
H         -3.10102       -0.94174       -0.68988
H         -3.22020       -2.56886       -1.42337
H         -4.31866       -2.10255       -0.08409
H         -2.16318       -0.69378        1.53345
H         -3.26208       -1.90375        2.26780
H         -1.47913       -2.11167        2.36655
H         -1.35163       -2.44861        0.00671
N          3.77882        0.10040        0.28469
C          3.61695        0.20034        1.73903
C          3.37152        1.32568       -0.41412
H          4.75091       -0.09871        0.06604
H          2.55071        0.28350        1.96298
H          3.99471       -0.71057        2.20865
H          4.14077        1.06941        2.15934
H          2.31788        1.52122       -0.20280
H          3.96147        2.19660       -0.09736
H          3.47677        1.18040       -1.49073
