35
1sa1msa1ma1eda_274.log	Energy: -1035876.8660405
S          0.44596       -1.50449        0.04742
O          0.47581       -0.62426       -1.12749
O         -0.75936       -2.35843        0.11164
O          1.71401       -2.24237        0.24494
O          0.39532       -0.55049        1.34928
H          2.92548       -1.44344       -0.42619
H         -0.49627       -0.13035        1.37740
S         -3.02034        0.27236       -0.04089
O         -2.85163        1.25372       -1.09460
O         -2.15448        0.38355        1.14294
O         -2.93864       -1.19337       -0.60836
H         -2.07138       -1.66531       -0.35130
C         -4.70848        0.30165        0.51122
H         -4.89646        1.29788        0.91248
H         -5.34887        0.10519       -0.34853
H         -4.83465       -0.46029        1.27951
N          0.58538        2.43969       -0.89202
H          0.13841        2.95577       -1.64308
C          0.10265        2.94301        0.39404
H         -0.98501        2.87166        0.52584
H          0.56921        2.37171        1.20335
H          0.40105        3.98938        0.51625
H          0.28602        1.47289       -1.00961
H          4.20614        1.02226       -1.56366
H          2.45679        0.62849       -1.53005
H          3.09490        2.23305        0.29124
H          2.40914        0.73164        0.89896
H          5.20716        1.52900        1.07539
H          4.28405        0.72061        2.15550
H          4.06871       -1.32924       -1.66881
H          4.49298       -0.90411       -0.09434
C          3.40001        0.55361       -0.99213
C          3.28290        1.16141        0.40086
N          3.75111       -0.88675       -0.81022
N          4.48808        0.82028        1.16857
