27
1sa1msa1a1ma_148.log	Energy: -951822.5916432
S          2.23018       -0.76587       -0.07551
O          1.26964       -0.84417       -1.18789
O          3.10880        0.41198       -0.13928
O          1.60318       -0.97757        1.24940
O          3.19797       -2.06984       -0.19572
H          3.72072       -1.97342       -1.00296
S         -2.62356       -0.25069       -0.07811
O         -2.17954        0.53423        1.06697
O         -2.82028        0.39749       -1.36168
O         -4.04841       -0.89519        0.35949
H         -4.68731       -0.71145       -0.34435
C         -1.60687       -1.68799       -0.23535
H         -0.61276       -1.35740       -0.56419
H         -1.54851       -2.17195        0.73943
H         -2.06104       -2.34054       -0.98093
N          0.40349        1.35165        1.97160
H          0.76481        2.02761        1.19512
H         -0.59075        1.15527        1.80515
H          0.92259        0.44698        1.85593
H          0.54419        1.73630        2.90044
N          1.32182        2.76246       -0.16845
H          1.56966        3.74563       -0.12394
C          0.37330        2.51037       -1.26645
H          0.71777        2.91047       -2.22642
H          0.24822        1.43125       -1.38040
H         -0.59772        2.95246       -1.02907
H          2.17772        2.22504       -0.32738
