36
1sa1msa2dma_158.log	Energy: -1025809.2416197
S         -0.23044       -1.00637       -0.68031
O          1.02948       -1.70659       -1.01313
O         -1.42862       -1.83267       -0.68822
O         -0.09841       -0.55159        0.87404
O         -0.37286        0.26798       -1.43785
H          0.78948       -0.14025        1.00165
H         -1.62551        1.06549       -0.78345
S          3.58533        0.13020        0.36812
O          4.39616       -0.72730        1.20921
O          2.32875        0.65229        0.93255
O          3.28895       -0.53422       -1.02501
H          2.37860       -1.00367       -1.04551
C          4.56027        1.51755       -0.16129
H          4.85215        2.06124        0.73763
H          5.43897        1.13428       -0.67972
H          3.95316        2.13888       -0.81838
N         -2.38841        1.59720       -0.27952
C         -3.11283        2.43802       -1.24813
C         -1.76947        2.34216        0.83435
H         -3.06773        0.87863        0.13472
H         -2.42988        3.17189       -1.67967
H         -3.50376        1.79972       -2.04116
H         -3.93687        2.95144       -0.74749
H         -1.05531        3.06684        0.43940
H         -2.54490        2.85770        1.40570
H         -1.24262        1.62677        1.46596
N         -4.16392       -0.22279        0.84369
C         -3.43058       -0.93358        1.90125
C         -4.60637       -1.12739       -0.22611
H         -4.97991        0.22199        1.25490
H         -2.52821       -1.37296        1.47123
H         -3.13646       -0.22553        2.68061
H         -4.03124       -1.73361        2.35560
H         -3.72310       -1.55282       -0.70844
H         -5.22990       -1.94819        0.15463
H         -5.18270       -0.56372       -0.96550
