33
1sa1msa1ma1dma_139.log	Energy: -1001151.7185309
S         -1.77168       -1.21143        0.23793
O         -2.62823       -0.01732        0.09879
O         -1.14748       -1.67816       -0.99552
O         -0.81493       -1.05442        1.37121
O         -2.75117       -2.42615        0.66483
H         -3.21446       -2.17705        1.47628
S          2.33552       -0.52965       -0.19204
O          3.75176       -0.31717        0.00527
O          1.52223        0.61300       -0.63425
O          1.75218       -1.09173        1.16027
H          0.74156       -1.10026        1.18866
C          2.07358       -1.85472       -1.34619
H          2.61165       -2.72783       -0.97713
H          0.99903       -2.04070       -1.41089
H          2.48048       -1.52876       -2.30429
N         -0.48042        2.00269        1.86085
H         -1.18610        2.33106        2.51249
C          0.85223        2.42229        2.30214
H          1.13807        2.04953        3.29501
H          1.59406        2.06867        1.58208
H          0.90507        3.51566        2.32172
H         -0.55153        0.98663        1.86482
N         -0.92097        1.80178       -1.14528
C         -1.04275        1.25231       -2.51557
C         -0.95244        3.27637       -1.06345
H         -1.66039        1.37940       -0.55156
H         -0.20126        1.60553       -3.11278
H         -1.03110        0.16419       -2.44583
H         -1.98430        1.58930       -2.95112
H         -0.12584        3.68107       -1.64924
H         -1.90209        3.63717       -1.46151
H         -0.84501        3.53894       -0.01152
H         -0.03816        1.45159       -0.73476
