38
1sa1msa1dma1eda_159.log	Energy: -1060551.1879091
S         -0.05743       -0.02605       -1.06123
O         -1.22635       -0.23794       -1.93619
O          1.22532        0.07848       -1.75574
O         -0.25167        1.42279       -0.37783
O         -0.02454       -0.99849        0.06839
H         -1.15897        1.45707        0.01281
H          1.63767       -1.29423        0.47680
S         -3.72164        0.14750        0.43000
O         -5.09667        0.39240        0.79956
O         -2.72537        1.19607        0.69268
O         -3.69637       -0.21545       -1.10727
H         -2.75359       -0.21606       -1.46113
C         -3.14288       -1.34367        1.20933
H         -3.17457       -1.17220        2.28614
H         -3.81731       -2.15208        0.92739
H         -2.11917       -1.52852        0.87395
N          2.64498       -1.56389        0.45980
C          2.82378       -2.57839       -0.59689
C          3.08666       -1.98620        1.79837
H          3.16761       -0.68520        0.16531
H          2.26783       -3.48128       -0.33869
H          2.43775       -2.16169       -1.52771
H          3.88581       -2.81166       -0.69846
H          2.51752       -2.86218        2.11558
H          4.15039       -2.23156        1.76825
H          2.91774       -1.15521        2.48234
H          2.01922        2.37014       -0.14635
H          2.83168        3.24762        1.14479
H          4.47703        2.68899       -0.47674
H          4.79050        1.66844        0.93583
H          3.24497        0.72683       -1.38560
H          4.84508        0.42628       -1.15919
H          2.37530        1.51850        2.56817
H          1.17778        1.20773        1.49848
C          2.72748        2.25780        0.67997
C          4.08456        1.85086        0.11670
N          2.18674        1.25751        1.60665
N          3.97291        0.61952       -0.67731
