33
1sa1msa1ma1dma_123.log	Energy: -1001153.1161325
S         -0.48836       -1.43228       -0.07472
O         -0.26228       -0.34761       -1.11570
O         -0.19265       -0.88818        1.26114
O         -1.79549       -2.05900       -0.22038
O          0.57712       -2.56318       -0.41407
H          1.47476       -2.15633       -0.41644
S          3.03533        0.33587       -0.07630
O          4.25130        1.03559       -0.42271
O          2.90419       -1.08489       -0.41561
O          1.81960        1.12071       -0.73076
H          1.04365        0.49452       -0.91768
C          2.72907        0.50867        1.66717
H          3.54048       -0.00582        2.18375
H          2.73655        1.57194        1.90797
H          1.76533        0.04278        1.88425
N         -3.74105       -0.12746        0.88579
H         -3.12631       -0.94295        0.93405
C         -4.76956       -0.37887       -0.13312
H         -5.42418       -1.22218        0.11231
H         -5.38658        0.51438       -0.26703
H         -4.27151       -0.60703       -1.07847
H         -4.16201       -0.00346        1.80097
N         -1.88635        1.64013       -0.13635
C         -1.04883        2.25692        0.91518
C         -2.49911        2.59678       -1.07553
H         -1.29546        0.95133       -0.65470
H         -1.66163        2.93352        1.51400
H         -0.64963        1.45075        1.53235
H         -0.22558        2.80296        0.45102
H         -3.15392        3.27544       -0.52573
H         -1.71869        3.16850       -1.58086
H         -3.08090        2.04330       -1.81332
H         -2.64775        1.03371        0.32635
