30
1sa1msa2ma_86.log	Energy: -976491.2774541
S         -1.88751        0.47356        0.59828
O         -3.11970       -0.22003        0.93862
O         -0.68062       -0.06867        1.31125
O         -1.58922        0.22741       -0.95716
O         -1.91727        1.94933        0.72126
H         -1.89470       -0.72851       -1.19107
H         -0.47919        2.53531        0.32548
S          2.47552       -0.45962        0.21690
O          3.10766       -0.31114        1.51490
O          2.20994        0.78593       -0.53192
O          1.17477       -1.31785        0.28438
H          0.35968       -0.79379        0.71303
C          3.47360       -1.50030       -0.81956
H          4.43396       -0.99877       -0.94140
H          3.60196       -2.45760       -0.31487
H          2.97264       -1.62242       -1.77913
N         -2.49979       -2.22519       -1.25119
H         -3.40223       -2.06223       -0.81031
C         -1.68978       -3.12546       -0.41661
H         -2.13686       -4.11863       -0.29503
H         -0.69686       -3.23077       -0.85866
H         -1.57210       -2.67237        0.56984
H         -2.66848       -2.62751       -2.16731
N          0.41429        2.82709       -0.17178
H          0.81978        3.63427        0.29598
C          0.09192        3.09999       -1.59298
H          1.00649        3.33314       -2.13775
H         -0.37213        2.20027       -1.99633
H         -0.61270        3.92926       -1.64873
H          1.09213        2.03877       -0.12147
