40
1sa1msa2eda_172.log	Energy: -1095281.5319501
S          0.75847        0.78602       -1.08683
O          0.70083       -0.68539       -1.37290
O          0.59299        1.04440        0.36251
O          2.19648        1.23384       -1.52374
O         -0.19165        1.56780       -1.89974
H          2.88734        0.50611       -1.21983
H         -2.42765        0.55054       -0.20260
S         -1.85815       -2.24132        0.16004
O         -2.82891       -3.31204        0.22058
O         -2.27241       -0.91563        0.65643
O         -1.37571       -2.10114       -1.32827
H         -0.55954       -1.47527       -1.40010
C         -0.38203       -2.68994        1.04427
H         -0.64285       -2.74396        2.10160
H         -0.05639       -3.66286        0.67593
H          0.37974       -1.92870        0.86319
H         -3.46010        3.33655       -0.18127
H         -4.14716        1.92904        0.68610
H         -2.83053        3.28088        2.21995
H         -2.02502        1.72730        1.98508
H         -0.79009        4.08685        1.71546
H         -0.33610        2.78241        0.82078
H         -3.19766        1.32207       -1.45463
H         -1.67574        1.80524       -1.02291
C         -3.22684        2.40451        0.33688
C         -2.27333        2.67990        1.49455
N         -2.59859        1.48000       -0.64606
N         -1.10748        3.41403        1.03048
H          5.07858       -1.19395        0.92482
H          5.33617        0.41931        0.22362
H          4.24062        0.54013        2.45520
H          3.24075        1.23413        1.17619
H          2.57218       -0.94072        2.83488
H          1.65725       -0.15408        1.70108
H          4.35144       -1.07999       -1.39926
H          3.06989       -1.33532       -0.40406
C          4.57285       -0.31073        0.51136
C          3.64775        0.29466        1.56599
N          3.77949       -0.65434       -0.67675
N          2.54464       -0.61769        1.87694
