41
1sa1msa1tma1eda_58.log	Energy: -1085218.9695792
S         -2.66034       -0.04458       -0.11011
O         -3.03416        1.35501       -0.29866
O         -2.69019       -0.88917       -1.30586
O         -1.40741       -0.22481        0.68256
O         -3.76109       -0.68002        0.92797
H         -4.64019       -0.46842        0.58625
S          2.95131       -0.09006        0.09858
O          1.67858       -0.28226       -0.65102
O          3.49968       -1.33851        0.65006
O          2.81197        1.01077        1.10243
C          4.14635        0.51282       -1.08859
H          4.28233       -0.25093       -1.85499
H          3.76445        1.43424       -1.52961
H          5.08395        0.69721       -0.56363
H          1.35905        3.11331       -0.58886
H          0.34071        1.83599       -1.27271
H         -0.64914        4.14629       -1.62197
H         -1.70258        3.08891       -0.66810
H         -0.09066        5.29538        0.38101
H         -1.65829        4.92014        0.67475
H          1.25894        1.59467        1.06935
H          0.01739        2.70683        1.48131
C          0.38320        2.62329       -0.51975
C         -0.75347        3.63043       -0.65863
N          0.31394        1.98349        0.81676
N         -0.74192        4.52706        0.49977
H         -0.36784        1.20092        0.82025
N         -0.28259       -2.67275        0.02245
C          0.80927       -3.10700        0.93241
H          1.71975       -2.54592        0.71415
H          0.49802       -2.91776        1.96052
H          0.97515       -4.17679        0.78548
C         -1.54838       -3.39416        0.31471
H         -1.84180       -3.18313        1.34317
H         -2.31851       -3.03139       -0.36506
H         -1.37934       -4.46447        0.17881
C          0.09891       -2.79763       -1.40935
H         -0.72374       -2.40700       -2.00913
H          0.99460       -2.19728       -1.56556
H          0.27737       -3.85256       -1.63030
H         -0.47539       -1.66311        0.20183
