27
1sa1msa1a1ma_170.log	Energy: -951818.7151972
S          1.71726       -0.54814        0.58243
O          2.94720       -1.02798        1.16498
O          0.64096       -0.07695        1.44779
O          2.01729        0.62546       -0.41477
O          1.17603       -1.70740       -0.33891
H          2.92801        0.43893       -0.89832
H          0.26407       -1.47839       -0.68281
S         -2.41453       -0.78208       -0.28144
O         -3.42666       -1.80573       -0.39436
O         -1.19240       -0.89451       -1.09949
O         -1.97563       -0.70494        1.24537
H         -1.03283       -0.41419        1.33491
C         -3.11082        0.81681       -0.58485
H         -3.40116        0.84298       -1.63615
H         -3.98402        0.92048        0.05976
H         -2.33389        1.55929       -0.35386
N          4.31685        0.01098       -1.45302
H          4.93814        0.76519       -1.72755
H          4.24286       -0.63868       -2.23020
H          4.74004       -0.48592       -0.67190
N         -0.48154        2.55655        0.25496
H         -0.24931        2.34752        1.22058
C         -0.53128        3.99959        0.03154
H          0.40308        4.53008        0.26588
H         -0.77521        4.19478       -1.01699
H         -1.32944        4.43583        0.63913
H          0.25720        2.13083       -0.29702
