33
1sa1msa1a1tma_66.log	Energy: -1001149.5985529
S         -0.72281       -0.31348       -0.95287
O          0.47440        0.11302       -1.69835
O         -1.82533       -0.84877       -1.74473
O         -0.29182       -1.53262       -0.00590
O         -1.19074        0.76983       -0.01907
H          0.53379       -1.28745        0.48567
H         -2.63186        0.39907        0.40323
S          3.22637       -0.36280        0.49570
O          4.34237       -1.24437        0.75720
O          1.93802       -0.63679        1.15502
O          2.99027       -0.33660       -1.07075
H          2.03534       -0.14370       -1.30186
C          3.67399        1.30986        0.87345
H          3.81591        1.36387        1.95382
H          4.60865        1.52244        0.35354
H          2.86305        1.96868        0.53495
N          1.10647        2.87663       -0.44525
H          0.91450        3.87248       -0.42642
H          0.30728        2.38931       -0.04463
H          1.13901        2.58509       -1.41768
N         -3.63087        0.10187        0.66851
C         -3.58997       -1.36347        0.91150
H         -3.27945       -1.85354       -0.01112
H         -2.85124       -1.56859        1.68652
H         -4.57978       -1.70434        1.22474
C         -3.99937        0.85631        1.88647
H         -3.30347        0.59642        2.68462
H         -3.92642        1.92413        1.67780
H         -5.02018        0.60206        2.18153
C         -4.49231        0.44063       -0.49086
H         -4.45840        1.51923       -0.64801
H         -4.08688       -0.06536       -1.36738
H         -5.51749        0.12160       -0.28786
