32
1sa1msa1a1eda_39.log	Energy: -1011238.9718432
S         -2.74671        0.11923       -0.06396
O         -2.38428        1.52993        0.19306
O         -1.85440       -0.55298       -1.01064
O         -2.98479       -0.65288        1.17763
O         -4.17478        0.16373       -0.83997
H         -4.80737        0.63450       -0.28075
S          1.97453       -1.41347       -0.22628
O          2.06155       -0.17581       -1.04522
O          1.31626       -2.55093       -0.88965
O          1.36978       -1.13185        1.12109
C          3.66527       -1.88968        0.09047
H          4.14590       -2.07754       -0.86990
H          4.16198       -1.07433        0.61690
H          3.65833       -2.79374        0.69961
N         -0.96990       -2.50380        0.86541
H         -0.92905       -2.49293       -0.15929
H         -1.80998       -1.95867        1.15564
H         -0.98019       -3.45897        1.20870
H         -0.09260       -2.00804        1.16360
H          0.14103        2.80173        1.31462
H          0.85790        1.16680        1.36149
H          2.62655        2.93706        1.64280
H          2.85877        1.95526        0.18653
H          1.85072        4.70492        0.24699
H          3.02826        4.05868       -0.68906
H         -0.75254        1.69503       -0.48077
H          0.50290        2.63863       -1.13023
C          0.82484        2.11107        0.81464
C          2.21656        2.70937        0.65064
N          0.27489        1.83409       -0.53639
N          2.13926        3.86593       -0.24455
H          0.74968        0.98760       -0.91922
