40
1sa1msa2eda_29.log	Energy: -1095296.4148118
S          2.92262       -0.59253       -0.20151
O          1.86566       -0.47506        0.84710
O          2.62219       -1.72281       -1.10754
O          3.27054        0.67523       -0.82191
O          4.27795       -1.02114        0.58983
H          4.17563       -1.93369        0.89009
S         -2.65951        0.39521       -0.08657
O         -2.23342        1.35604        0.96852
O         -3.08021       -0.92125        0.42866
O         -1.62654        0.28574       -1.16494
C         -4.09180        1.12725       -0.85880
H         -4.85963        1.24892       -0.09448
H         -3.80510        2.09271       -1.27577
H         -4.43479        0.45452       -1.64498
H         -2.03492       -2.64478       -1.03545
H         -0.73326       -3.66234       -1.70398
H         -1.95351       -4.64256        0.32129
H         -0.19897       -4.52507        0.53137
H         -2.06840       -2.48966        1.55766
H         -1.14265       -3.53692        2.45846
H         -0.52600       -1.06629       -0.97312
H         -0.02445       -1.82899        0.40681
C         -1.05502       -3.08257       -0.83776
C         -1.11812       -3.93677        0.43088
N         -0.11684       -1.95384       -0.61586
N         -1.21457       -3.04513        1.57774
H          0.84486       -2.07511       -0.98194
H          1.68661        2.44223       -0.70010
H          0.03822        1.93966       -1.14038
H          0.29400        4.44104       -1.30890
H         -0.91206        3.97195       -0.10157
H          1.81415        4.87190        0.49484
H          0.39847        5.46506        1.06546
H          1.02887        1.00043        0.97079
H          0.78378        2.55844        1.60752
C          0.63110        2.51542       -0.42781
C          0.15848        3.95948       -0.33170
N          0.46868        1.87987        0.90642
N          0.86883        4.62007        0.76513
H         -0.54038        1.65794        1.06511
