32
1sa1msa1a1eda_323.log	Energy: -1011209.2049401
S         -2.84828        0.71843       -0.23702
O         -3.93609        1.47835       -0.80463
O         -1.54650        1.35306       -0.05866
O         -3.25570        0.14346        1.16016
O         -2.67725       -0.56018       -1.14844
H         -4.26932       -0.09220        1.14841
H         -1.84457       -1.05139       -0.89953
S          0.87198       -1.09994       -0.22628
O          1.55549       -0.79130       -1.46663
O         -0.45599       -1.73425       -0.32460
O          0.72912        0.19912        0.68086
H         -0.10950        0.68402        0.44766
C          1.90361       -2.07988        0.81855
H          2.04427       -3.03064        0.30201
H          2.86505       -1.55675        0.94107
H          1.38923       -2.22542        1.76793
N         -5.81984       -0.30377        0.94742
H         -6.06173       -1.22021        0.58349
H         -6.05156        0.38743        0.23708
H         -6.39208       -0.12534        1.76634
H          5.70639        0.34699       -0.96834
H          4.15762       -0.47392       -1.24250
H          3.81157        1.92835       -1.24893
H          2.99998        1.21062        0.14507
H          5.51220        2.71008        0.24294
H          4.12876        2.98271        1.06987
H          5.52565       -1.34954        0.67302
H          5.14713        0.04051        1.45617
C          4.72340        0.12353       -0.52052
C          3.98140        1.43280       -0.28253
N          4.83166       -0.61284        0.74174
N          4.71770        2.25577        0.68135
