27
1sa1msa1a1ma_130.log	Energy: -951829.1274681
S          1.21745       -1.16600       -0.13785
O          0.62289       -0.37364       -1.26630
O          2.56143       -1.65936       -0.46309
O          1.15104       -0.40781        1.12563
O          0.31386       -2.46604        0.01802
H         -0.60351       -2.16627        0.21803
S         -2.47245        0.16942        0.22435
O         -2.43794        1.00072        1.41114
O         -2.13441       -1.25370        0.35157
O         -1.59693        0.80473       -0.92504
H         -0.70918        0.30502       -1.04957
C         -4.08633        0.28691       -0.51057
H         -4.79672       -0.10672        0.21710
H         -4.28958        1.33810       -0.71418
H         -4.09652       -0.30299       -1.42635
N          3.71537        0.51238        0.83093
H          3.72733       -0.38152        0.30760
H          3.04243        0.34662        1.58687
H          4.63232        0.77740        1.17565
H          3.24054        1.26057        0.16235
N          2.24518        2.10495       -0.76377
H          2.65415        2.75633       -1.42716
C          1.24641        2.78297        0.08442
H          0.44366        3.24769       -0.49590
H          0.80030        2.04284        0.75223
H          1.73981        3.55215        0.68469
H          1.77103        1.37618       -1.30392
