28
1sa1msa1eda_04.log	Energy: -975737.8635314
S         -1.06814       -1.84363       -0.12005
O         -1.19535       -0.79484       -1.14030
O         -0.86178       -1.12669        1.27967
O         -2.13538       -2.78866        0.03292
O          0.27042       -2.61570       -0.35849
H          1.04186       -1.97829       -0.52528
S          2.21237        0.40330       -0.00762
O          2.12019        1.52238       -0.96383
O          2.21881       -0.94231       -0.63934
O          1.14867        0.50057        1.05320
H         -0.04999       -0.52714        1.25456
C          3.76821        0.55870        0.83993
H          4.55956        0.47786        0.09465
H          3.79365        1.53262        1.32831
H          3.83949       -0.24655        1.57085
H         -1.72692        3.63435       -0.57632
H         -2.20168        2.55380       -1.91161
H         -3.84612        2.50015        0.04559
H         -3.14860        0.92855       -0.34618
H         -2.74265        2.42295        2.06785
H         -2.39997        0.83969        1.75289
H          0.21672        2.24113       -1.15656
H         -0.40690        1.79302        0.30574
C         -1.89619        2.59415       -0.86436
C         -2.91848        1.91846        0.05881
N         -0.62174        1.86245       -0.70255
N         -2.34335        1.78493        1.39317
H         -0.72621        0.87560       -1.01303
