30
1sa1msa2ma_58.log	Energy: -976495.2678307
S         -1.62520        0.88127       -0.25354
O         -2.99788        0.83504        0.22736
O         -0.60916        0.71133        0.84818
O         -1.40151       -0.36864       -1.21738
O         -1.25781        2.06294       -1.06814
H         -1.97136       -1.15968       -0.85437
H          0.20915        2.59208       -0.62418
S          2.21824       -1.04807       -0.01145
O          3.30142       -1.88810        0.44806
O          2.49914        0.38304       -0.22539
O          1.02050       -1.19579        0.99260
H          0.33592       -0.42762        0.91448
C          1.56983       -1.69059       -1.53747
H          2.34168       -1.56145       -2.29706
H          1.35566       -2.74873       -1.38549
H          0.66059       -1.13863       -1.78488
N          1.16670        2.78899       -0.21368
H          1.64736        1.86724       -0.16957
C          1.03712        3.38167        1.13844
H          2.02590        3.50881        1.57908
H          0.52955        4.34295        1.06135
H          0.44008        2.69372        1.73575
H          1.68962        3.39007       -0.84650
N         -2.87495       -2.20799       -0.09705
H         -3.74253       -1.68755        0.00891
C         -2.28288       -2.47827        1.22324
H         -2.91154       -3.11664        1.85346
H         -1.30821       -2.95276        1.09177
H         -2.12579       -1.52527        1.73216
H         -3.08887       -3.07035       -0.58766
