33
1sa1msa1a1tma_41.log	Energy: -1001155.6111604
S         -1.09695       -1.87738       -0.04051
O         -0.23322       -1.63278       -1.22822
O         -0.36998       -1.86415        1.23118
O         -2.31561       -1.05857       -0.07401
O         -1.56462       -3.42687       -0.17765
H         -2.01535       -3.53211       -1.02623
S          2.49445        0.35860       -0.10069
O          1.37547        1.20415        0.33286
O          3.75498        0.99397       -0.42164
O          2.05421       -0.46748       -1.37254
H          1.15179       -0.91472       -1.26193
C          2.73993       -0.89260        1.13871
H          1.78754       -1.40416        1.30276
H          3.50646       -1.57736        0.77593
H          3.07713       -0.38605        2.04416
N         -0.82871        0.90863        2.19986
H         -0.75092       -0.10333        2.07149
H         -1.36142        1.07768        3.04650
H          0.11698        1.25592        2.33195
N         -1.60223        2.04776       -0.21241
C         -3.07798        2.05148       -0.08086
H         -3.42955        1.02884       -0.21736
H         -3.33767        2.39901        0.92016
H         -3.50727        2.71824       -0.83242
C         -1.00875        3.37961        0.04941
H         -1.29560        3.70072        1.05189
H          0.07587        3.28357       -0.00939
H         -1.37459        4.09390       -0.69168
C         -1.17420        1.51998       -1.53317
H         -0.08754        1.46082       -1.54291
H         -1.59782        0.52639       -1.66522
H         -1.52993        2.20366       -2.30853
H         -1.25562        1.43787        0.59336
