32
1sa1msa1a1eda_208.log	Energy: -1011228.7086246
S          0.93104        1.48792        0.19127
O          2.37658        1.61699        0.00740
O          0.21627        0.99236       -1.02931
O          0.60957        0.57929        1.34930
O          0.33666        2.88737        0.51640
H          1.63458       -0.58292        1.37582
H         -0.65877        2.97057        0.13041
S         -2.46148       -1.09853       -0.12637
O         -3.20607       -2.28698       -0.48762
O         -3.03326        0.21888       -0.40209
O         -1.03944       -1.20474       -0.81590
H         -0.58202       -0.29186       -0.89752
C         -2.06991       -1.16281        1.60965
H         -1.64447       -2.14437        1.82155
H         -1.35576       -0.36573        1.82732
H         -3.00605       -1.02971        2.15317
N         -2.01449        3.02446       -0.48808
H         -1.91226        3.28272       -1.46509
H         -2.67883        3.66128       -0.06012
H         -2.40984        2.08037       -0.46725
H          2.60168       -3.18440        0.24212
H          0.99332       -2.42463        0.03860
H          2.67896       -2.20192       -1.95012
H          1.84958       -0.73784       -1.43256
H          4.62609       -1.16413       -1.38666
H          3.77886        0.16573       -0.86925
H          2.36295       -1.91223        2.16651
H          3.27694       -0.97377        1.10544
C          2.06715       -2.24082        0.10729
C          2.58674       -1.48528       -1.12971
N          2.34508       -1.38864        1.29567
N          3.86166       -0.84571       -0.80752
