40
1sa1msa2eda_78.log	Energy: -1095295.9684392
S         -3.04454       -0.25802       -0.23032
O         -3.05814        0.98885       -1.02542
O         -2.57709       -1.43339       -0.96960
O         -2.38989       -0.10231        1.08925
O         -4.59450       -0.52218        0.18041
H         -5.11921       -0.53700       -0.63148
S          2.50869        0.24088       -0.26995
O          2.51274       -0.44881        1.04466
O          2.97066        1.63410       -0.24968
O          1.14608        0.10724       -0.91602
C          3.61677       -0.67299       -1.32721
H          4.62119       -0.57022       -0.91551
H          3.31672       -1.72213       -1.33332
H          3.56400       -0.24355       -2.32756
H         -1.51263        3.53435        0.68275
H         -1.16589        1.91603        1.31979
H          0.42706        3.81098        2.12066
H          1.22865        2.39498        1.44757
H          1.39403        5.00200        0.44736
H          2.09052        3.62177       -0.13237
H         -1.54486        1.89419       -1.03325
H         -0.23691        2.99967       -1.23814
C         -0.77101        2.73239        0.71248
C          0.58541        3.24445        1.19757
N         -0.62745        2.23388       -0.68067
N          1.21480        4.05186        0.15208
H          0.05211        1.44244       -0.74473
H         -0.42874       -3.59181        1.48616
H         -1.11861       -3.17587       -0.10410
H          0.83726       -4.63865       -0.42181
H          1.15211       -3.04845       -1.08672
H          2.52030       -2.57517        0.86913
H          2.24911       -4.11097        1.43234
H         -1.00793       -1.18880        1.14847
H          0.63690       -1.42061        1.50465
C         -0.24378       -3.07285        0.54148
C          1.02005       -3.59554       -0.14506
N         -0.11441       -1.62363        0.83793
N          2.25843       -3.52303        0.60770
H          0.17546       -1.09315       -0.00902
