39
1sa1msa1dma1tma_45.log	Energy: -1050474.8415523
S          0.21922       -1.58740        0.24169
O          0.31348       -0.61150       -0.90419
O          1.51369       -2.29806        0.35846
O         -0.23018       -0.92118        1.47168
O         -0.84933       -2.65983       -0.16310
H         -1.77132       -2.14539       -0.24863
S         -0.70949        2.53554       -0.07162
O         -1.39926        3.73140       -0.51124
O          0.75311        2.49149       -0.11622
O         -1.27517        1.31631       -0.91028
H         -0.59695        0.53260       -0.91482
C         -1.21893        2.14021        1.58745
H         -0.82003        2.91596        2.24248
H         -2.30913        2.14454        1.61522
H         -0.81864        1.15418        1.83569
N         -3.03636       -1.27527       -0.30433
C         -3.60417       -1.24117        1.04604
C         -3.97912       -1.74535       -1.32003
H         -2.71995       -0.33717       -0.54945
H         -3.88843       -2.25592        1.33874
H         -2.83823       -0.88867        1.73992
H         -4.49176       -0.59676        1.10743
H         -4.22827       -2.79164       -1.12154
H         -4.90833       -1.15973       -1.33025
H         -3.50900       -1.68372       -2.30359
N          3.31513       -0.35630       -0.15978
C          3.09145        0.52866        1.01481
H          2.13734        1.04075        0.88255
H          3.06957       -0.08812        1.91364
H          3.90131        1.25993        1.06579
C          4.60344       -1.08083       -0.07250
H          4.61666       -1.66075        0.85078
H          4.68755       -1.75567       -0.92479
H          5.42472       -0.36111       -0.07932
C          3.17019        0.38984       -1.43634
H          3.20994       -0.32120       -2.26152
H          2.20619        0.89640       -1.42882
H          3.98441        1.11422       -1.51326
H          2.56738       -1.09911       -0.10600
