40
1sa1msa2eda_244.log	Energy: -1095275.9217833
S         -1.12945       -0.09835        0.02965
O          0.33676       -0.03909       -0.24356
O         -1.52152       -0.89528        1.18468
O         -1.64536        1.30933        0.08039
O         -1.73265       -0.75994       -1.27108
H         -0.53480        2.29135       -0.38110
H         -2.69755       -1.10493       -1.09938
S          3.43484       -1.24171        0.07809
O          3.49638       -0.61267        1.39106
O          3.80477       -0.40997       -1.06923
O          2.03403       -1.91282       -0.16435
H          1.28823       -1.20821       -0.19305
C          4.44302       -2.70452        0.07010
H          5.47130       -2.37909        0.23004
H          4.11230       -3.35445        0.87965
H          4.33633       -3.19253       -0.89806
H          1.31573        4.44365        0.49430
H          0.37601        3.29507        1.48237
H          2.90747        2.79466        1.39971
H          1.87934        1.45630        0.88512
H          3.52992        3.10570       -0.83663
H          3.17728        1.50184       -0.93015
H         -0.27974        3.83792       -1.01840
H          0.90671        2.67506       -1.27824
C          1.00006        3.40127        0.59372
C          2.21299        2.46144        0.62098
N          0.19919        3.04107       -0.60830
N          2.79144        2.42169       -0.71961
H         -5.53775       -2.09938        0.69246
H         -3.83650       -1.86944        1.17615
H         -5.17585        0.07989        1.82945
H         -3.96746        0.52084        0.62250
H         -6.83950        0.23590        0.14091
H         -5.84092        1.46568       -0.26663
H         -4.16606       -2.65078       -1.16127
H         -4.82136       -1.17441       -1.48506
C         -4.62314       -1.51738        0.50476
C         -4.89263       -0.04207        0.77475
N         -4.16453       -1.67377       -0.88537
N         -5.89902        0.45978       -0.16640
