35
1sa1msa1ma1eda_284.log	Energy: -1035869.2701262
S         -1.31805       -0.53300       -0.02544
O         -0.34291       -0.52582        1.08194
O         -2.39081        0.47637        0.14245
O         -0.56102       -0.04611       -1.33634
O         -1.88094       -1.87793       -0.30111
H          0.36787       -0.38386       -1.35233
H         -3.61047       -1.73331       -0.61374
S          2.79687       -1.06007       -0.01465
O          3.45779        0.18862        0.31963
O          1.93884       -1.08102       -1.20646
O          1.98066       -1.62243        1.21371
H          1.04373       -1.23970        1.20563
C          4.01219       -2.34158       -0.17613
H          4.66813       -2.05039       -0.99693
H          4.56815       -2.40013        0.75939
H          3.50204       -3.27881       -0.39451
N         -4.42327       -1.08776       -0.47722
H         -3.88780       -0.19638       -0.31818
C         -5.20368       -1.45523        0.72635
H         -5.96767       -0.70039        0.90916
H         -5.66376       -2.43224        0.58231
H         -4.51281       -1.49122        1.56799
H         -4.98781       -1.02915       -1.32118
H          0.00235        4.80179        0.27158
H         -1.01226        3.81117        1.31160
H          1.31898        3.24493        1.71115
H          0.51784        1.86594        0.94795
H          2.29717        3.74319       -0.42342
H          2.47983        2.12584       -0.23905
H         -0.47114        3.14793       -1.47367
H         -1.59090        2.47578       -0.50908
C         -0.34733        3.77310        0.44079
C          0.86120        2.89090        0.77121
N         -1.12281        3.35336       -0.72009
N          1.79329        2.86460       -0.35514
