39
1sa1msa1dma1tma_15.log	Energy: -1050487.7541535
S         -2.91337        0.03259       -0.15165
O         -3.40229        1.14196       -0.96820
O         -2.87952       -1.27492       -0.85255
O         -1.66261        0.29501        0.58206
O         -3.99346       -0.15291        1.06556
H         -4.87552       -0.18687        0.67219
S          2.66155       -0.48195        0.14257
O          2.53601       -1.82267        0.73414
O          3.03917        0.60495        1.06204
O          1.41297       -0.12178       -0.64168
C          3.95224       -0.58794       -1.08986
H          4.87753       -0.85835       -0.58031
H          3.67651       -1.35320       -1.81560
H          4.05501        0.38304       -1.57546
N         -0.39659       -2.22916       -0.15503
C         -0.49736       -2.58386        1.27911
C          0.19456       -3.28814       -0.99584
H         -1.34637       -1.96509       -0.49999
H          0.50822       -2.75101        1.66519
H         -0.96937       -1.74591        1.79119
H         -1.11266       -3.47983        1.37783
H          1.20253       -3.49230       -0.63276
H         -0.42552       -4.18425       -0.93752
H          0.23363       -2.93417       -2.02644
H          0.18402       -1.37160       -0.25254
N          0.56081        2.42095       -0.04310
C         -0.58164        2.92962       -0.84456
H         -0.36888        2.76170       -1.90094
H         -1.48869        2.39390       -0.57011
H         -0.69305        3.99937       -0.65273
C          0.30583        2.51127        1.42005
H         -0.61287        1.96537        1.63218
H          1.15170        2.05167        1.93302
H          0.20975        3.56489        1.69273
C          1.82634        3.10351       -0.41301
H          2.63690        2.65770        0.16387
H          2.00234        2.95458       -1.47925
H          1.72740        4.16975       -0.19791
H          0.70492        1.40401       -0.26070
