27
1sa1msa1a1ma_93.log	Energy: -951830.8478230
S          1.46849        0.30773       -0.59913
O          0.07891        0.20564       -1.14267
O          2.53389        0.17762       -1.58356
O          1.56454        1.55836        0.21734
O          1.57258       -0.91285        0.40754
H          0.14745        2.08283        0.51839
H          2.56530       -1.18786        0.48303
S         -2.82748       -0.32890        0.13837
O         -3.14281        0.83271       -0.69348
O         -2.34122       -0.00726        1.48794
O         -1.83977       -1.29356       -0.59303
H         -0.96965       -0.78335       -0.83583
C         -4.24212       -1.38826        0.26604
H         -5.01594       -0.82428        0.78725
H         -4.56214       -1.64957       -0.74212
H         -3.95686       -2.27375        0.83339
N         -0.89590        2.32604        0.66172
H         -1.37844        2.23196       -0.23707
H         -1.02260        3.26055        1.03868
H         -1.32617        1.61795        1.27748
N          4.15451       -1.37582        0.39753
H          4.55032       -2.26573        0.68136
C          4.80336       -0.25409        1.08997
H          5.88187       -0.19473        0.90426
H          4.33692        0.67536        0.75608
H          4.63398       -0.35144        2.16467
H          4.27314       -1.28202       -0.60877
