33
1sa1msa1ma1dma_201.log	Energy: -1001138.3959778
S         -2.11531       -0.39456       -0.60128
O         -1.02400       -0.09250       -1.54016
O         -3.46932       -0.20759       -1.16004
O         -2.05286       -1.95065       -0.26694
O         -1.95653        0.32992        0.69691
H         -1.13568       -2.16945        0.03389
H         -3.50923        0.86191        1.22857
S          1.61871       -1.28138        0.37143
O          2.97597       -1.76538        0.49701
O          0.51637       -2.24126        0.51914
O          1.50868       -0.59653       -1.05865
H          0.55278       -0.40621       -1.28920
C          1.34647        0.06422        1.49622
H          1.47622       -0.33935        2.50162
H          2.09845        0.82597        1.26073
H          0.32544        0.42582        1.35121
N         -4.49474        1.06426        0.92442
H         -4.48897        0.51895        0.02710
C         -4.69553        2.50946        0.67478
H         -5.68595        2.67372        0.25165
H         -4.58722        3.05976        1.60880
H         -3.93454        2.83209       -0.03490
H         -5.16549        0.67333        1.58145
N          3.78511        1.53205       -0.17400
C          5.04230        1.02566        0.35635
C          3.91172        2.84877       -0.77540
H          3.42107        0.87846       -0.86073
H          5.36282        1.65517        1.19444
H          4.89462        0.00777        0.72458
H          5.85754        1.01595       -0.38778
H          4.17289        3.58038       -0.00256
H          4.68643        2.90166       -1.56054
H          2.95565        3.14850       -1.21350
