42
1sa1msa2tma_29.log	Energy: -1075134.7145197
S          0.92377        0.10104       -0.31215
O          1.33818        1.11271        0.67728
O          0.64998       -1.22572        0.31964
O         -0.21954        0.53455       -1.15129
O          2.11630       -0.10634       -1.31911
H          2.99465       -0.27746       -0.77292
S         -2.83280       -1.45481       -0.02200
O         -3.35299       -0.95819       -1.28729
O         -2.62721       -0.46232        1.03873
O         -1.54422       -2.31758       -0.21566
H         -0.65225       -1.82234       -0.00882
C         -3.93977       -2.71075        0.58167
H         -4.91038       -2.23819        0.73513
H         -4.01045       -3.49269       -0.17428
H         -3.54333       -3.10450        1.51692
N         -1.66335        2.39161        0.07076
C         -0.88646        3.48693       -0.55855
H          0.16149        3.35729       -0.28662
H         -0.99065        3.41064       -1.64086
H         -1.26644        4.44783       -0.20338
C         -3.08794        2.40595       -0.33681
H         -3.14507        2.28804       -1.41906
H         -3.58528        1.56258        0.13902
H         -3.53757        3.35328       -0.02899
C         -1.49701        2.38805        1.54719
H         -2.03951        1.53348        1.94748
H         -0.43369        2.27574        1.76202
H         -1.88841        3.32659        1.94822
H         -1.22369        1.50905       -0.31128
N          4.27793       -0.47137        0.07232
C          3.89520       -1.19728        1.28680
H          3.13847       -0.62231        1.82411
H          3.45447       -2.15826        1.01308
H          4.76458       -1.36558        1.94165
C          5.26083       -1.21885       -0.70830
H          4.85364       -2.20212       -0.95602
H          5.47049       -0.68657       -1.63974
H          6.20414       -1.35330       -0.15562
C          4.74879        0.87704        0.39131
H          4.99630        1.40253       -0.53477
H          3.94449        1.41912        0.89397
H          5.64067        0.85228        1.03728
