41
1sa1msa1tma1eda_115.log	Energy: -1085210.2086685
S          0.87874        0.23869       -0.50024
O          1.21708        1.32930        0.43323
O          0.98473       -1.10698        0.07313
O         -0.48561        0.48266       -1.11108
O          1.83702        0.33882       -1.74564
H          2.83313        0.24698       -1.45153
S         -2.83299       -1.71230        0.03703
O         -4.10996       -2.36707       -0.16229
O         -2.78375       -0.49917        0.85964
O         -2.24724       -1.37852       -1.39423
H         -1.49792       -0.70279       -1.32480
C         -1.65777       -2.86993        0.69746
H         -1.98669       -3.12092        1.70668
H         -1.66540       -3.75186        0.05680
H         -0.67579       -2.38984        0.69988
H          5.60228        0.79020        0.57886
H          3.91267        1.35315        0.65159
H          4.30014       -0.46183        2.27643
H          3.12370       -0.93625        1.04480
H          5.87767       -1.89042        1.24295
H          4.49744       -2.73382        0.98298
H          4.85444        0.85052       -1.64046
H          4.74693       -0.73289       -1.20477
C          4.55730        0.51294        0.37784
C          4.17965       -0.70765        1.21233
N          4.35436        0.19651       -1.04621
N          4.97344       -1.86258        0.78507
N         -1.75798        2.38158        0.32054
C         -0.99760        3.54378       -0.20255
H          0.05713        3.38265        0.02130
H         -1.13646        3.59393       -1.28289
H         -1.37003        4.45595        0.26934
C         -3.19458        2.44273       -0.04380
H         -3.27821        2.49730       -1.12995
H         -3.67672        1.53477        0.31691
H         -3.63892        3.33158        0.41024
C         -1.55872        2.21390        1.78388
H         -2.09300        1.31858        2.09814
H         -0.49029        2.08889        1.96060
H         -1.94394        3.10018        2.29400
H         -1.34072        1.53823       -0.15462
