41
1sa1msa1tma1eda_172.log	Energy: -1085204.9354743
S         -2.74512       -0.20248       -0.48234
O         -3.46750       -0.36264        0.77506
O         -2.32743        1.21235       -0.73461
O         -1.66780       -1.16446       -0.73315
O         -3.80447       -0.52736       -1.67683
H         -4.62171       -0.04845       -1.48445
S          0.74072        2.10791        0.42700
O          2.16910        2.21753        0.16658
O          0.29440        1.07181        1.35668
O          0.02650        1.93929       -0.95691
H         -0.96041        1.59057       -0.86611
C          0.12599        3.66959        1.01578
H          0.59720        3.86568        1.97935
H          0.39233        4.43638        0.28878
H         -0.95609        3.58393        1.12272
H          3.47280        0.34507       -2.23098
H          4.44746       -1.12655       -2.17283
H          2.24881       -1.58586       -3.08542
H          2.51396       -2.47288       -1.57581
H          1.06746        0.08885       -1.62587
H          0.30403       -1.32669       -1.71867
H          4.79247       -0.17108       -0.13425
H          3.25059        0.28380        0.07313
C          3.58683       -0.62435       -1.71866
C          2.35071       -1.47152       -1.99525
N          3.83468       -0.46988       -0.28483
N          1.15785       -0.89337       -1.37556
N          0.38958       -1.84913        1.31814
C          0.25076       -3.17345        0.66564
H         -0.69814       -3.18887        0.13011
H          1.07763       -3.30489       -0.03150
H          0.27888       -3.94980        1.43302
C          1.72006       -1.69083        1.95889
H          2.49429       -1.73843        1.18853
H          1.75154       -0.70856        2.42929
H          1.84616       -2.47858        2.70546
C         -0.71939       -1.60804        2.27802
H         -0.61823       -0.60099        2.67645
H         -1.67132       -1.69261        1.75595
H         -0.64508       -2.35076        3.07603
H          0.35892       -1.15001        0.54730
