40
1sa1msa2eda_246.log	Energy: -1095279.1489139
S         -0.43001       -1.86313       -0.12979
O         -1.78963       -2.40856        0.05345
O          0.61053       -2.86361       -0.40605
O         -0.46870       -0.99837       -1.49805
O         -0.04587       -0.90969        0.93718
H         -1.17791       -0.32139       -1.39591
H          2.14917       -0.68838        0.87967
S         -3.36348        0.70967        0.19558
O         -4.55256        1.52680        0.10915
O         -2.33984        0.85731       -0.85192
O         -3.82140       -0.79716        0.26990
H         -3.04505       -1.43854        0.17802
C         -2.56274        0.97511        1.76173
H         -2.26861        2.02535        1.79411
H         -3.28464        0.75497        2.54804
H         -1.68888        0.31987        1.81114
H          4.95055        0.57043       -0.24090
H          5.73048       -0.17875        1.14434
H          4.54293       -1.79726       -0.45740
H          4.10262       -1.95746        1.25757
H          2.53834       -0.32993       -0.69637
H          2.11814       -1.91123       -0.20448
H          4.48913        1.25533        2.34932
H          3.39631        1.54496        1.14686
C          4.75470        0.03948        0.70144
C          4.07134       -1.29433        0.39035
N          3.93873        0.82065        1.62137
N          2.65006       -1.05761        0.06304
H          1.27463        2.80426       -2.28116
H          0.45153        1.23919       -2.22054
H         -0.18363        2.63648       -0.32618
H          0.60503        1.15627        0.20718
H          1.92001        3.78549        0.06378
H          1.54299        2.95294        1.40576
H          2.70440        0.86772       -2.74334
H          3.23400        1.73669       -1.46541
C          1.21219        1.85137       -1.73386
C          0.77977        2.11018       -0.29907
N          2.49070        1.11949       -1.78279
N          1.82370        2.84371        0.43558
