29
1sa1msa1tma_19.log	Energy: -965657.4796719
S         -1.63702       -1.35217        0.00205
O         -2.36786       -0.73968        1.11386
O         -1.30460       -0.41585       -1.08771
O         -0.48068       -2.17282        0.43826
O         -2.64809       -2.39283       -0.72585
H         -2.84012       -3.10778       -0.10376
S          2.36140       -0.15749        0.04925
O          2.24105        0.11387        1.47671
O          1.72961        0.81115       -0.84804
O          1.90249       -1.61988       -0.29327
H          0.94039       -1.81733       -0.01108
C          4.07573       -0.30972       -0.38960
H          4.53445        0.66339       -0.21222
H          4.52654       -1.07135        0.24577
H          4.14106       -0.58254       -1.44241
N         -1.08009        2.08714       -0.07330
C         -0.56563        2.01805        1.32194
H         -1.09350        1.21494        1.83765
H          0.50060        1.79564        1.29682
H         -0.75009        2.97881        1.80831
C         -0.35681        3.09589       -0.88379
H          0.70228        2.84328       -0.87735
H         -0.73599        3.06040       -1.90558
H         -0.52907        4.08470       -0.45248
C         -2.55041        2.30099       -0.09340
H         -2.89212        2.28586       -1.12850
H         -3.01820        1.48412        0.45737
H         -2.77400        3.26534        0.36800
H         -0.93416        1.14416       -0.51081
