28
1sa1msa1eda_48.log	Energy: -975730.6191667
S          0.53495       -1.12135       -0.04109
O         -0.17047       -1.54114        1.16089
O          1.92193       -1.54647       -0.21125
O         -0.22419       -1.70292       -1.31890
O          0.44497        0.39782       -0.20486
H         -1.15268       -1.36834       -1.29896
H          1.77820        0.95269       -0.81502
S         -3.06781        0.49825       -0.03666
O         -2.63805       -0.46408       -1.05896
O         -4.25762        1.28250       -0.27640
O         -1.87809        1.51233        0.23713
H         -0.98458        1.07794        0.08117
C         -3.22063       -0.37315        1.50491
H         -4.03198       -1.09210        1.38423
H         -2.27358       -0.88041        1.70126
H         -3.46089        0.35511        2.27921
H          4.30009        2.43451       -0.20630
H          2.72163        2.55628        0.62162
H          4.45359        1.09173        1.83983
H          2.93111        0.27356        1.47867
H          5.48537       -0.42033        0.47132
H          4.02991       -1.18575        0.24801
H          2.71047        1.93772       -1.85580
H          3.32649        0.46610       -1.31971
C          3.42088        1.87880        0.12855
C          3.82922        0.70522        1.02892
N          2.76021        1.29518       -1.06934
N          4.51519       -0.29500        0.21775
