30
1sa1msa1a1dma_138.log	Energy: -976473.3248537
S         -1.61431       -0.34158        0.27414
O         -2.88000        0.35283        0.29044
O         -0.58611        0.04575        1.23777
O         -1.83033       -1.87681        0.43787
O         -1.03262       -0.17404       -1.18400
H         -2.77715       -2.14279        0.06103
H         -0.08461       -0.47667       -1.21040
S          2.58742       -0.65301       -0.17626
O          3.47672        0.37101       -0.67256
O          1.45027       -1.07015       -1.01239
O          2.03521       -0.25267        1.25400
H          1.04304       -0.14981        1.24991
C          3.52542       -2.10565        0.22442
H          3.98723       -2.45421       -0.69979
H          4.28584       -1.82275        0.95210
H          2.84653       -2.85442        0.63098
N         -4.21384       -2.34365       -0.45251
H         -4.60916       -1.40643       -0.40719
H         -4.78147       -2.95611        0.12483
H         -4.27438       -2.66654       -1.41321
N         -0.38256        3.22552        0.50596
C          0.87966        2.85763       -0.10871
C         -1.40965        3.54415       -0.47083
H         -0.69915        2.47069        1.10392
H          1.30092        3.72365       -0.63117
H          1.59680        2.55394        0.65785
H          0.79228        2.04094       -0.84942
H         -1.13428        4.46356       -1.00056
H         -1.56418        2.75256       -1.22549
H         -2.36081        3.72056        0.03787
