40
1sa1msa2eda_261.log	Energy: -1095274.9382187
S          0.92045       -1.59782       -0.53609
O          0.96875       -0.32181       -1.25391
O         -0.27166       -2.41279       -0.86965
O          2.18986       -2.35416       -0.55817
O          0.79698       -1.24176        1.04256
H          3.25015       -1.49068        0.33607
H         -0.09488       -0.85691        1.20080
S         -2.90734       -0.62770        0.28744
O         -3.94602        0.37144        0.13489
O         -1.74986       -0.29737        1.12566
O         -2.42744       -1.03317       -1.15406
H         -1.56346       -1.56985       -1.11991
C         -3.61558       -2.13111        0.92176
H         -3.97431       -1.92363        1.93039
H         -4.43769       -2.42127        0.26783
H         -2.83520       -2.89319        0.93520
H          5.57768        0.34672        0.43885
H          4.86020       -0.46492       -0.97889
H          4.29309        2.04683       -0.79693
H          2.88188        0.97749       -0.88101
H          3.78388        2.42276        1.46393
H          2.24232        2.04357        0.94357
H          4.52029       -1.43500        1.44408
H          3.35546       -0.20914        1.47319
C          4.64189        0.05814       -0.04679
C          3.72950        1.27717       -0.25660
N          3.91076       -0.85884        0.87037
N          3.21340        1.70103        1.03880
H          0.05602        4.21792       -0.17290
H          0.49702        3.14903       -1.50933
H         -1.88157        3.74928       -1.70398
H         -1.72158        2.02936       -1.34733
H         -2.75901        4.07278        0.41958
H         -3.15946        2.47949        0.29584
H         -0.28573        2.18063        1.12353
H          0.36911        1.31333       -0.08858
C         -0.09999        3.21566       -0.59227
C         -1.58436        3.03120       -0.92441
N          0.39424        2.22635        0.36508
N         -2.38946        3.13920        0.29085
