42
1sa1msa2tma_04.log	Energy: -1075142.3509146
S         -2.81172        0.91512       -0.13038
O         -2.45232        2.29413       -0.46244
O         -3.12653        0.05106       -1.27399
O         -1.87720        0.26658        0.82987
O         -4.17676        1.00850        0.77072
H         -4.79696        1.58066        0.29956
S          2.82741       -0.90075        0.00737
O          2.21847       -2.18269        0.40281
O          3.28987       -0.05001        1.12269
O          1.93879       -0.12686       -0.93423
C          4.27384       -1.31714       -0.95818
H          4.94611       -1.89300       -0.32157
H          3.95588       -1.91098       -1.81544
H          4.75296       -0.39431       -1.28630
N          1.45683        2.31543        0.04727
C          0.80690        2.12743        1.37147
H         -0.15192        1.62652        1.22711
H          1.46648        1.50667        1.97914
H          0.65677        3.10669        1.83258
C          2.80828        2.90817        0.18669
H          3.41068        2.23837        0.80065
H          3.25473        3.00137       -0.80454
H          2.71779        3.89470        0.64772
C          0.60811        3.09387       -0.88773
H          1.08244        3.09182       -1.87006
H         -0.38585        2.64737       -0.93862
H          0.52108        4.11789       -0.51626
H          1.59568        1.34570       -0.36205
N         -1.48349       -2.29939        0.12051
C         -0.69534       -2.99630        1.16829
H          0.31436       -2.58222        1.18747
H         -1.19607       -2.85559        2.12727
H         -0.64733       -4.06026        0.92408
C         -2.85815       -2.84431        0.00703
H         -3.34125       -2.77978        0.98291
H         -3.40874       -2.23750       -0.71179
H         -2.80067       -3.88632       -0.31612
C         -0.78695       -2.28275       -1.19392
H         -1.40358       -1.71002       -1.88707
H          0.18525       -1.80463       -1.06939
H         -0.66011       -3.31207       -1.53750
H         -1.58690       -1.29276        0.41653
