36
1sa1msa2dma_200.log	Energy: -1025797.9986957
S          1.01816       -0.08027       -0.36145
O         -0.08259        0.21517       -1.29440
O          2.12563        0.89695       -0.41559
O          0.44454        0.11555        1.12290
O          1.50793       -1.47825       -0.45307
H         -0.44916       -0.30413        1.18983
H          3.24645       -1.47644       -0.15721
S         -3.05831       -0.96011        0.10863
O         -4.08024        0.03336        0.36040
O         -1.95581       -1.08615        1.07447
O         -2.45306       -0.79548       -1.33961
H         -1.51728       -0.41208       -1.32165
C         -3.82406       -2.55426       -0.05245
H         -4.30581       -2.77180        0.90127
H         -4.56374       -2.49490       -0.85067
H         -3.05313       -3.28923       -0.28018
N          4.05994       -0.87304        0.10206
C          5.24272       -1.14531       -0.73584
C          4.27891       -0.96601        1.56215
H          3.62799        0.05374       -0.11957
H          5.59355       -2.16135       -0.54972
H          4.96206       -1.03734       -1.78343
H          6.03063       -0.43186       -0.49066
H          4.61596       -1.97272        1.81270
H          5.02907       -0.23373        1.86284
H          3.33251       -0.75506        2.06111
N         -0.32753        3.29104        0.65129
C          0.13072        3.83565       -0.61659
C         -1.66896        2.73799        0.56223
H          0.31025        2.56029        0.94780
H         -0.48597        4.70210       -0.88378
H          1.16487        4.17708       -0.51726
H          0.08285        3.11066       -1.44689
H         -2.39229        3.54458        0.39793
H         -1.78856        2.01155       -0.25963
H         -1.93188        2.24321        1.50088
