32
1sa1msa1a1eda_214.log	Energy: -1011228.0570313
S          0.34060        0.64752        0.78725
O         -0.48884        1.21593       -0.32432
O          0.79040       -0.72826        0.44988
O          1.43178        1.53611        1.17929
O         -0.60983        0.54424        2.05585
H         -1.45868        0.11356        1.79142
S         -3.54854       -0.37795       -0.19856
O         -4.65071        0.56208       -0.22342
O         -2.86340       -0.60865        1.08116
O         -2.47688       -0.02988       -1.30021
H         -1.67109        0.46386       -0.90387
C         -4.11469       -1.94942       -0.80427
H         -4.88628       -2.29359       -0.11496
H         -4.52959       -1.80089       -1.80107
H         -3.27187       -2.63931       -0.82259
N          2.00194        2.37159       -1.68584
H          2.16061        2.84773       -0.79985
H          1.00058        2.17207       -1.68692
H          2.20048        3.02090       -2.43947
H          4.88519        0.59624       -0.36841
H          3.58462        0.63568        0.85342
H          5.23741       -1.19821        1.34709
H          3.62125       -1.82581        1.01021
H          5.91792       -1.94113       -0.79800
H          4.86277       -3.12239       -0.39559
H          2.74755        0.78484       -1.43407
H          3.38870       -0.81125       -1.68466
C          4.04525        0.04215        0.06134
C          4.48529       -1.32864        0.55866
N          3.02743       -0.14252       -1.00044
N          4.94586       -2.12973       -0.57793
H          2.15546       -0.52795       -0.56236
