33
1sa1msa1ma1dma_146.log	Energy: -1001153.6126682
S         -2.46261       -0.47870       -0.40625
O         -1.62496        0.68051       -0.63358
O         -3.68344       -0.67210       -1.14727
O         -1.64087       -1.79117       -0.47078
O         -2.83089       -0.35739        1.17095
H         -3.49686       -1.02564        1.38610
S          1.82416       -1.28596        0.11250
O          2.67386       -0.45077        0.97261
O          1.64394       -0.75995       -1.26312
O          0.49254       -1.56725        0.76810
H         -0.70900       -1.69865        0.00535
C          2.60620       -2.87794       -0.05614
H          3.57935       -2.72572       -0.52335
H          2.71852       -3.30845        0.93899
H          1.97260       -3.50620       -0.68246
N          0.24529        1.44036        1.72094
H         -0.03280        0.46702        1.59649
C         -0.85659        2.22909        2.27854
H         -1.22900        1.84264        3.23473
H         -0.52920        3.26227        2.42623
H         -1.68208        2.22590        1.56408
H          1.04271        1.40959        2.34996
N          1.14927        1.94212       -0.83156
C          0.32511        2.83044       -1.67174
C          2.54006        2.40166       -0.64046
H          0.71429        1.81407        0.14852
H          0.79624        2.94898       -2.64973
H         -0.66283        2.38638       -1.78063
H          0.24365        3.80537       -1.18668
H          3.03421        2.48965       -1.60982
H          2.52873        3.37367       -0.14274
H          3.05584        1.66497       -0.02259
H          1.17889        0.97677       -1.21473
