36
1sa1msa2dma_152.log	Energy: -1025808.8334687
S          1.38143        1.11939       -0.21105
O          1.82734        0.44162       -1.42389
O          0.21572        0.43024        0.44708
O          2.55983        1.10017        0.83545
O          1.03392        2.55759       -0.36262
H          3.04110        0.17460        0.79338
H         -0.48008        2.74269        0.00806
S         -2.34676       -1.52267       -0.06099
O         -2.63690       -0.86691       -1.33255
O         -2.84634       -0.86957        1.14665
O         -0.80652       -1.81685        0.07342
H         -0.29448       -0.92419        0.18615
C         -2.94946       -3.19327       -0.11904
H         -4.03257       -3.13194       -0.22866
H         -2.50226       -3.69038       -0.97927
H         -2.68186       -3.69141        0.81214
N         -1.52171        2.94448        0.15073
C         -1.98529        2.38647        1.44663
C         -2.25733        2.42246       -1.02887
H         -1.59612        3.96074        0.17353
H         -1.92745        1.29983        1.39676
H         -1.32927        2.75441        2.23550
H         -3.01582        2.69927        1.62430
H         -2.12609        1.34073       -1.07700
H         -3.31827        2.65780       -0.92920
H         -1.84332        2.88288       -1.92598
N          3.73918       -1.21708        0.63921
C          4.66011       -1.11353       -0.49751
C          2.70489       -2.23794        0.43546
H          4.26270       -1.43289        1.48275
H          4.09361       -0.76995       -1.36646
H          5.42925       -0.37094       -0.27343
H          5.14145       -2.07296       -0.73233
H          2.12764       -1.97359       -0.45375
H          3.13327       -3.23995        0.29577
H          2.02763       -2.24978        1.29241
