35
1sa1msa1ma1eda_154.log	Energy: -1035887.0382513
S          1.81609       -0.78731       -0.52211
O          3.10410       -1.24581       -1.09298
O          0.96616       -1.88459       -0.02875
O          2.03510        0.26323        0.52351
O          1.08152       -0.08671       -1.73042
H          3.67448        0.72979        0.49944
H          0.16899        0.25442       -1.44392
S         -1.60508        1.78035        0.00998
O         -2.76026        2.57384       -0.39622
O         -1.23600        0.70779       -0.97971
O         -1.72390        1.17373        1.37493
H         -1.54397       -0.42334        1.30945
C         -0.18545        2.86008        0.08938
H         -0.05212        3.31248       -0.89415
H         -0.39181        3.62607        0.83760
H          0.68145        2.25816        0.36918
N          4.64452        0.46418        0.18537
H          4.36592       -0.23778       -0.54801
C          5.40497       -0.17723        1.28012
H          6.35002       -0.55998        0.89574
H          5.58543        0.54624        2.07469
H          4.80280       -1.00147        1.66096
H          5.12724        1.25669       -0.23022
H         -3.87484       -0.41483        0.85833
H         -4.16915       -2.03182        1.52229
H         -2.42969       -2.99357        0.04316
H         -2.23218       -1.42275       -0.77030
H         -1.56604       -1.94828        2.04505
H         -0.51008       -1.64935        0.77203
H         -5.78803       -1.75066       -0.11357
H         -4.72873       -1.21082       -1.23009
C         -3.88980       -1.48652        0.61220
C         -2.49462       -1.91126        0.16959
N         -4.83350       -1.84181       -0.44120
N         -1.46675       -1.47238        1.15095
