32
1sa1msa1a1eda_302.log	Energy: -1011221.9348230
S         -0.33193        0.87786       -0.57260
O          0.81394        0.92450       -1.50018
O         -1.65166        0.92421       -1.21810
O         -0.31758       -0.59374        0.09517
O         -0.21425        1.84445        0.54617
H          0.59990       -0.80012        0.39890
H         -1.83633        2.13607        1.07061
S          3.49434       -0.56120        0.13089
O          4.12567       -1.62011       -0.62886
O          2.25315       -0.87592        0.85553
O          3.26270        0.71925       -0.75774
H          2.29508        0.81600       -1.05166
C          4.65796        0.09026        1.30412
H          4.91939       -0.72370        1.98085
H          5.53635        0.43080        0.75604
H          4.18429        0.91147        1.84068
N         -2.87480        1.99344        1.04096
H         -3.04411        0.93014        1.28026
H         -3.12517        2.12579        0.06019
H         -3.37740        2.63405        1.64702
H         -4.29095       -2.40106        1.09805
H         -5.16830       -0.92861        1.57465
H         -5.50268       -1.47287       -0.79228
H         -4.70655        0.09026       -0.62104
H         -3.79752       -1.79139       -2.23341
H         -2.73095       -0.84482       -1.42883
H         -2.90219       -0.96232        2.41583
H         -2.29695       -1.01322        0.90855
C         -4.33231       -1.31181        0.97777
C         -4.56156       -0.99738       -0.49781
N         -3.09227       -0.67716        1.45886
N         -3.47787       -1.52636       -1.31085
