27
1sa1msa1a1ma_68.log	Energy: -951833.0951666
S         -1.05901       -1.34949       -0.13390
O         -0.79705       -0.38671        0.99459
O         -0.08018       -2.42169       -0.19959
O         -2.48174       -1.72372       -0.16588
O         -0.89146       -0.44853       -1.47354
H          0.03178       -0.09722       -1.47772
S          2.46258        0.40243        0.06410
O          3.58481        1.29659        0.23285
O          1.55594        0.62881       -1.07274
O          1.61654        0.44010        1.40042
H          0.68396        0.07156        1.26032
C          3.02832       -1.28022       -0.01901
H          3.62540       -1.37041       -0.92729
H          3.63585       -1.47260        0.86514
H          2.15347       -1.93392       -0.05804
N         -3.44776        0.43478        1.18724
H         -4.36188        0.59173        1.59954
H         -3.16170        1.18602        0.43331
H         -2.71105        0.41093        1.89373
H         -3.37692       -0.48834        0.70261
N         -2.44707        2.03791       -0.73904
H         -2.09530        1.28958       -1.33956
C         -1.29992        2.78538       -0.19305
H         -0.66961        3.22763       -0.97033
H         -1.66118        3.57960        0.46525
H         -0.68511        2.09838        0.39114
H         -3.02620        2.64144       -1.31507
