30
1sa1msa2ma_81.log	Energy: -976492.8716168
S         -1.55424        0.30497        0.53110
O         -2.60221        0.23794        1.54177
O         -0.15554        0.26631        1.06587
O         -1.64591       -1.00471       -0.36256
O         -1.68328        1.47356       -0.38723
H         -2.62864       -1.31614       -0.38271
H         -0.23402        1.98218       -0.83043
S          2.77879       -0.68426       -0.06407
O          3.51051        0.22293        0.80697
O          2.25705       -0.09522       -1.31218
O          1.63459       -1.42844        0.69600
H          0.82667       -0.79767        0.86987
C          3.79772       -2.07066       -0.49551
H          4.65970       -1.67592       -1.03374
H          4.10942       -2.56107        0.42631
H          3.21543       -2.74248       -1.12483
N          0.77962        2.24895       -1.02029
H          1.29576        1.36616       -1.21133
C          1.36572        2.92286        0.16509
H          2.42754        3.10023       -0.00276
H          0.83880        3.86057        0.34004
H          1.23139        2.25655        1.01594
H          0.82242        2.83395       -1.85129
N         -4.21316       -1.54664       -0.23152
H         -4.59167       -2.47021       -0.41282
C         -4.91616       -0.51569       -1.00652
H         -5.99056       -0.46938       -0.79480
H         -4.46964        0.45431       -0.77699
H         -4.77348       -0.70930       -2.07215
H         -4.30246       -1.35719        0.76437
