41
1sa1msa1tma1eda_226.log	Energy: -1085193.8240135
S          1.06996        0.36266       -1.06404
O          2.03742        1.39784       -1.40576
O         -0.21643        0.41680       -1.78090
O          1.66316       -1.01430       -1.11449
O          0.75306        0.62729        0.49292
H          3.13897       -1.01715       -0.79792
H         -0.01734        0.06772        0.75964
S         -2.35542       -1.56829        0.25132
O         -3.64999       -1.28391        0.83779
O         -1.14830       -1.19923        1.00194
O         -2.28895       -0.98726       -1.20684
H         -1.47679       -0.40151       -1.37472
C         -2.25561       -3.31486       -0.07227
H         -2.33521       -3.82729        0.88687
H         -3.08451       -3.58789       -0.72517
H         -1.29642       -3.51808       -0.54819
H          5.74371        0.32526       -0.07192
H          4.27140        1.06858       -0.78519
H          4.47027        1.47725        1.71434
H          2.99099        0.64263        1.24014
H          5.26661       -0.53194        2.63362
H          3.66499       -0.81016        2.82501
H          4.72264       -1.36425       -1.34264
H          4.32536       -1.64892        0.26684
C          4.64976        0.32190       -0.08646
C          4.07666        0.53637        1.31367
N          4.19776       -1.02268       -0.54170
N          4.38824       -0.63524        2.13822
N         -2.35859        1.88119        0.37092
C         -3.63738        1.92439       -0.31594
H         -3.47736        1.83045       -1.39415
H         -4.26136        1.08848        0.01014
H         -4.18186        2.87106       -0.12558
C         -2.53454        1.90149        1.81076
H         -3.15451        1.05435        2.11692
H         -1.56029        1.80874        2.30145
H         -3.01248        2.83659        2.16651
C         -1.49549        2.96116       -0.07281
H         -0.52809        2.89371        0.43120
H         -1.31836        2.87122       -1.14777
H         -1.93488        3.95792        0.13309
