36
1sa1msa1ma1tma_120.log	Energy: -1025798.6878203
S          1.93087       -0.13510        0.70186
O          0.77611       -0.33816        1.58920
O          3.24343       -0.39516        1.32632
O          1.85367       -1.24814       -0.45131
O          1.91198        1.18359        0.01086
H          0.92627       -1.30326       -0.79782
H          3.54543        1.55898       -0.38911
S         -1.79832       -1.85858       -0.30886
O         -1.96633       -3.29695       -0.31023
O         -0.72826       -1.28508       -1.14454
O         -1.60312       -1.33504        1.17552
H         -0.67920       -0.97323        1.32292
C         -3.32016       -1.06840       -0.74398
H         -3.54776       -1.36938       -1.76751
H         -4.08641       -1.43268       -0.05883
H         -3.17565        0.01804       -0.65526
N          4.53814        1.21117       -0.35318
H          5.19675        1.96622       -0.18093
C          4.85099        0.41974       -1.56837
H          5.83286       -0.03984       -1.46080
H          4.08738       -0.35352       -1.66100
H          4.82931        1.07100       -2.44152
H          4.45150        0.57894        0.47595
N         -2.68274        2.05142       -0.12701
C         -1.23309        2.14256       -0.03230
H         -0.85519        1.41041        0.68322
H         -0.77740        1.92445       -1.00121
H         -0.89704        3.14397        0.29616
C         -3.21450        3.01514       -1.07236
H         -2.75224        2.86354       -2.05247
H         -4.29566        2.87949       -1.17846
H         -3.02652        4.06113       -0.76202
C         -3.30814        2.18237        1.17744
H         -4.39166        2.05553        1.08321
H         -2.92809        1.40471        1.84622
H         -3.11579        3.16721        1.64373
