40
1sa1msa2eda_240.log	Energy: -1095278.2713230
S          0.37604       -0.97323        1.22981
O         -0.73103       -1.93660        1.41847
O          1.69416       -1.45393        1.62582
O          0.52279       -0.78016       -0.38223
O          0.03036        0.37406        1.74779
H         -0.37061       -0.55510       -0.73411
H          1.03593        1.56716        1.14650
S         -3.23033       -0.66517       -0.61528
O         -3.70824       -1.66018       -1.55287
O         -1.98782        0.05301       -0.95937
O         -3.10852       -1.24435        0.83757
H         -2.15205       -1.52529        1.08497
C         -4.49962        0.54935       -0.35222
H         -4.69145        1.02428       -1.31476
H         -5.39089        0.03367        0.00499
H         -4.14436        1.27110        0.38232
H          5.24847       -1.58655       -0.99943
H          4.39310       -1.59579       -2.53453
H          4.43006        0.68498       -1.72080
H          2.76912        0.08116       -1.64871
H          3.15236       -0.34474        0.72420
H          4.60307        0.40586        0.61788
H          3.30812       -2.51385        0.04610
H          2.45061       -2.41776       -1.32593
C          4.25702       -1.46128       -1.45430
C          3.76869       -0.02621       -1.21106
N          3.39395       -2.52232       -0.96517
N          3.67592        0.36592        0.20348
H          1.61232        3.07545       -1.34153
H          0.76702        1.51602       -1.20099
H         -0.88141        3.38612       -1.36970
H         -0.99058        2.54369        0.17655
H          0.14958        5.20204       -0.26108
H         -0.84460        4.68815        0.93098
H          2.55838        1.67544        0.43368
H          1.75141        3.08856        1.06820
C          0.94808        2.47405       -0.71369
C         -0.35715        3.20408       -0.42340
N          1.64006        2.20433        0.56789
N         -0.06574        4.41707        0.34370
