30
1sa1msa1a1dma_129.log	Energy: -976473.2373287
S          1.55584       -0.45069       -0.30109
O          0.54910       -0.12603       -1.30547
O          2.82184        0.24494       -0.32100
O          0.94307       -0.19692        1.13495
O          1.78204       -1.99170       -0.36353
H         -0.01838       -0.45773        1.15642
H          2.72517       -2.22942        0.03851
S         -2.65603       -0.50162        0.10789
O         -3.36113        0.71239        0.45017
O         -1.58204       -0.96492        1.00271
O         -2.07703       -0.42386       -1.36560
H         -1.08631       -0.30865       -1.36012
C         -3.82071       -1.82601       -0.08207
H         -4.30804       -1.95937        0.88423
H         -4.54541       -1.52834       -0.83970
H         -3.28234       -2.72527       -0.37855
N          4.15912       -2.39930        0.57516
H          4.21355       -2.67703        1.55020
H          4.55166       -1.46390        0.48895
H          4.73295       -3.03577        0.03085
N          0.89112        3.11207        0.67047
C          1.50264        3.54676       -0.57415
C         -0.51762        2.79482        0.51838
H          1.38622        2.30351        1.02913
H          1.05362        4.49689       -0.88549
H          2.57200        3.71339       -0.42083
H          1.37969        2.82551       -1.40093
H         -1.07957        3.70953        0.30006
H         -0.72282        2.08162       -0.29989
H         -0.91322        2.37793        1.44807
