39
1sa1msa1dma1tma_61.log	Energy: -1050473.6114266
S          0.24878       -0.77864        0.44660
O          1.18679       -1.77647       -0.10005
O         -1.06945       -1.28999        0.81788
O          0.86425       -0.25398        1.83349
O          0.15530        0.42697       -0.43546
H          1.78473        0.05835        1.66165
H         -1.30971        1.11366       -0.08648
S          4.01802        0.20740       -0.23105
O          5.44914        0.38954       -0.31270
O          3.33318        0.55759        1.02039
O          3.70899       -1.30218       -0.58590
H          2.74876       -1.52585       -0.38772
C          3.21924        1.10394       -1.54461
H          3.64633        0.76726       -2.48908
H          2.14538        0.90938       -1.48623
H          3.42978        2.16157       -1.37999
N         -2.25208        1.47301        0.21649
C         -2.56387        2.71753       -0.50650
C         -2.24629        1.60965        1.68818
H         -2.95809        0.71174       -0.05787
H         -1.83138        3.48531       -0.25099
H         -2.52305        2.52354       -1.57913
H         -3.56413        3.06110       -0.23395
H         -1.48318        2.33088        1.98513
H         -3.22889        1.94756        2.02522
H         -2.00975        0.63548        2.11615
N         -4.08397       -0.47375       -0.50385
C         -4.35409       -1.27377        0.69327
H         -3.41260       -1.66946        1.07970
H         -4.81679       -0.64257        1.45835
H         -5.03647       -2.11062        0.47423
C         -5.30972        0.11896       -1.03044
H         -5.77328        0.75311       -0.26848
H         -5.07718        0.73547       -1.90406
H         -6.04099       -0.64750       -1.33417
C         -3.40446       -1.27993       -1.52183
H         -3.15158       -0.65040       -2.38050
H         -2.48355       -1.68498       -1.09783
H         -4.04132       -2.10813       -1.87095
