40
1sa1msa2eda_190.log	Energy: -1095282.5656025
S         -0.60739        0.81217        1.87738
O         -1.16188        1.44817        3.05461
O          0.07085        1.76957        0.94775
O          0.23415       -0.38777        2.13575
O         -1.80811        0.19528        0.99730
H          0.00634       -1.65976        1.12799
H         -2.21650        0.94193        0.41839
S          2.75785        0.05604       -0.57972
O          3.87643        0.11612       -1.49644
O          1.78169       -1.02733       -0.74306
O          2.01266        1.44290       -0.66055
H          1.22999        1.50822       -0.00950
C          3.34701        0.00513        1.09867
H          3.92413       -0.91421        1.20768
H          3.98203        0.87614        1.25975
H          2.48065        0.00528        1.76479
H         -0.41762        2.31293       -2.08148
H         -1.13995        1.62905       -3.53935
H         -2.80331        2.96105       -2.50801
H         -3.27929        1.26558       -2.28448
H         -1.92325        2.86749       -0.21837
H         -3.52778        2.55115       -0.25477
H          0.06606       -0.04168       -2.38413
H         -0.76233        0.17915       -1.02524
C         -1.16177        1.58641       -2.44576
C         -2.54780        2.02562       -1.99262
N         -0.85403        0.21664       -2.03738
N         -2.61895        2.18966       -0.52895
H         -1.21928       -4.31429        0.56000
H         -1.79494       -3.05324        1.68317
H         -3.17976       -3.23953       -0.46122
H         -2.49183       -1.63715       -0.17253
H         -1.77492       -3.43423       -2.30391
H         -1.53749       -1.78638       -2.15346
H          0.71454       -3.15245        0.98130
H          0.15944       -2.40927       -0.38872
C         -1.36857       -3.24012        0.69612
C         -2.24438       -2.66962       -0.42781
N         -0.04105       -2.58098        0.61123
N         -1.49957       -2.68922       -1.67846
