20
1sa1msa1a_11.log	Energy: -891670.3111468
S         -1.63384       -0.72220       -0.04495
O         -2.97802       -1.23117        0.06796
O         -0.60754       -1.52815       -0.70046
O         -1.61841        0.66458       -0.76163
O         -1.15848       -0.39543        1.43026
H         -2.45803        1.21870       -0.47500
H         -0.19307       -0.16087        1.42072
S          2.26806        0.34745        0.00445
O          1.45004        0.13184        1.20857
O          2.26442        1.66274       -0.59699
O          1.90136       -0.76748       -1.06056
H          0.94655       -1.05057       -0.97515
C          3.93509       -0.13099        0.37784
H          4.31962        0.59799        1.09174
H          3.92220       -1.13201        0.80685
H          4.50873       -0.10226       -0.54851
N         -3.78750        1.87679        0.00061
H         -3.69261        2.33797        0.90034
H         -4.43600        1.10108        0.11346
H         -4.19002        2.53888       -0.65502
