38
1sa1msa1dma1eda_118.log	Energy: -1060553.5215792
S         -0.17981        2.20223        0.70924
O          0.58772        0.97559        0.89810
O          0.35361        3.46117        1.14638
O         -0.51130        2.33653       -0.83555
O         -1.59420        2.00727        1.37968
H         -1.94313        1.08502        1.18056
S         -2.02873       -0.94958       -0.60203
O         -2.40212       -0.39750        0.72989
O         -1.02163       -2.03495       -0.49529
O         -1.63597        0.10938       -1.57101
H         -0.94947        1.48991       -1.16242
C         -3.50173       -1.69399       -1.26694
H         -3.83087       -2.46848       -0.57426
H         -4.25725       -0.91431       -1.36301
H         -3.25740       -2.11983       -2.23996
N          1.07330       -1.88196        1.25032
C          0.73422       -1.53038        2.64390
C          1.48162       -3.28750        1.07085
H          0.24737       -1.72341        0.63638
H          1.59501       -1.73317        3.28458
H          0.48285       -0.47180        2.67344
H         -0.11990       -2.12763        2.96780
H          2.40688       -3.47110        1.62078
H          0.69388       -3.94878        1.43496
H          1.63963       -3.47215        0.00813
H          1.86107       -1.25789        0.88040
H          4.07772       -0.61828       -1.85208
H          2.92349       -1.90330       -1.47005
H          1.89678       -0.35718       -3.05176
H          1.06603       -0.21749       -1.50573
H          2.89144        1.74091       -2.64798
H          1.47646        1.96897       -1.83762
H          4.10683       -0.67385        0.46111
H          3.00776        0.50568        0.16366
C          3.12433       -0.83171       -1.34859
C          2.01497       -0.01799       -2.01311
N          3.18079       -0.49927        0.08441
N          2.31622        1.40340       -1.88564
