32
1sa1msa1a1eda_262.log	Energy: -1011225.1925698
S          1.50614       -1.64598       -0.16803
O          1.23060       -1.30048       -1.54822
O          2.73101       -1.05054        0.41744
O          0.35156       -1.45513        0.76318
O          1.77886       -3.24474       -0.19384
H          2.03447       -3.52448        0.69552
S         -2.65914        0.07406       -0.04144
O         -2.15339        0.77754       -1.21698
O         -2.49335        0.73507        1.24948
O         -2.10045       -1.39765        0.01598
H         -1.11302       -1.42888        0.26134
C         -4.37528       -0.30346       -0.29888
H         -4.89795        0.65124       -0.36362
H         -4.46901       -0.85893       -1.23147
H         -4.73351       -0.88592        0.54916
N          0.40306        1.22209        2.30549
H          0.33546        1.37056        3.30730
H          0.33996        0.21654        2.13743
H         -0.43635        1.61273        1.88032
H          2.69065        3.49895       -0.26509
H          3.53747        2.16338       -1.07800
H          1.52204        2.63456       -2.32937
H          1.29931        1.08172       -1.53435
H          0.00237        3.58408       -0.80352
H         -0.62093        2.06658       -0.89676
H          3.36882        1.94534        1.36611
H          1.69591        1.71265        1.30224
C          2.63517        2.43776       -0.52461
C          1.38263        2.15755       -1.34799
N          2.61731        1.66006        0.74193
N          0.19982        2.60529       -0.62943
H          2.73717        0.63504        0.56091
