41
1sa1msa1tma1eda_133.log	Energy: -1085208.8860040
S          0.53122       -1.30370       -1.02280
O          0.71379        0.12759       -1.52031
O         -0.54042       -1.99167       -1.75741
O          1.86049       -1.99920       -1.18914
O          0.20591       -1.22408        0.45199
H          2.97666       -1.24563       -0.74065
H         -1.35813       -1.36185        0.61849
S         -1.15815        2.48402        0.00389
O         -1.22676        3.81461        0.58119
O         -1.94102        1.41870        0.63921
O          0.34208        2.06681       -0.09673
H          0.47266        1.15901       -0.66649
C         -1.66186        2.54596       -1.70764
H         -2.72837        2.77292       -1.73019
H         -1.09089        3.33117       -2.20309
H         -1.45312        1.57317       -2.15781
H          4.44996        1.31362        0.02534
H          2.87094        1.13745       -0.79598
H          2.60720        1.69298        1.65179
H          1.87613        0.14989        1.21824
H          4.31892        0.51699        2.76486
H          3.11691       -0.57773        2.94471
H          4.57465       -0.71011       -1.14595
H          4.25165       -1.10597        0.44858
C          3.52784        0.72625       -0.02943
C          2.83150        0.67140        1.32861
N          3.87971       -0.66927       -0.40539
N          3.67717       -0.08453        2.26055
N         -2.35026       -1.72951        0.78589
C         -2.21276       -3.20459        0.74177
H         -1.81400       -3.47283       -0.23728
H         -1.50700       -3.51308        1.51345
H         -3.18897       -3.66607        0.91158
C         -2.77965       -1.24061        2.11542
H         -2.06740       -1.59377        2.86237
H         -2.77898       -0.15086        2.09471
H         -3.77751       -1.62759        2.33777
C         -3.23547       -1.24024       -0.30083
H         -3.28126       -0.15403       -0.23419
H         -2.78842       -1.53794       -1.24966
H         -4.22734       -1.68272       -0.17334
