27
1sa1msa1a1ma_116.log	Energy: -951829.5309442
S         -0.75921       -1.07150        0.38489
O         -0.64100       -0.04548       -0.72493
O         -0.26657       -0.54105        1.64993
O         -2.11555       -1.64696        0.40209
O          0.17073       -2.28632       -0.06759
H          1.08510       -1.93642       -0.19435
S          2.80029        0.46641       -0.25061
O          4.01409        1.02584       -0.80100
O          2.52438       -0.96135       -0.45446
O          1.58400        1.30610       -0.82392
H          0.72366        0.78221       -0.78352
C          2.73098        0.78987        1.49600
H          3.56022        0.24694        1.95140
H          2.84726        1.86338        1.64373
H          1.77076        0.42836        1.87061
N         -3.17470       -0.28289       -1.66319
H         -3.09262       -1.06188       -0.97694
H         -3.68204        0.52550       -1.18145
H         -2.18147       -0.01410       -1.77862
H         -3.60688       -0.56859       -2.53575
N         -4.17610        1.77272       -0.08758
H         -4.16068        2.70065       -0.50141
C         -3.18838        1.69057        1.00900
H         -3.35484        2.43717        1.79231
H         -3.22585        0.69401        1.45335
H         -2.18594        1.82489        0.59768
H         -5.11465        1.64146        0.27889
