30
1sa1msa2ma_70.log	Energy: -976491.9324673
S          1.54520        0.02687       -0.66563
O          0.15690       -0.21806       -1.17183
O          2.61013       -0.26105       -1.61762
O          1.60730        1.40660       -0.09858
O          1.68208       -0.98612        0.54919
H          0.10273        1.93412        0.07372
H          2.68204       -1.19181        0.68468
S         -2.73736       -0.67010        0.16135
O         -3.12604        0.27614       -0.88439
O         -2.27969       -0.05228        1.41449
O         -1.68511       -1.69566       -0.36940
H         -0.83877       -1.18979       -0.69772
C         -4.07946       -1.77131        0.51712
H         -4.89257       -1.16243        0.91283
H         -4.37452       -2.25965       -0.41106
H         -3.74084       -2.49669        1.25619
N          4.29095       -1.30390        0.64303
H          4.73368       -2.10686        1.07690
C          4.86556       -0.04352        1.13152
H          5.94249        0.04399        0.94680
H          4.35509        0.78571        0.63633
H          4.68335        0.04198        2.20528
H          4.41430       -1.37886       -0.36436
N         -0.93857        2.14580        0.13485
H         -1.35577        1.81307       -0.73946
C         -1.22402        3.57019        0.39197
H         -2.30145        3.72521        0.44831
H         -0.75897        3.85742        1.33452
H         -0.80358        4.16913       -0.41536
H         -1.33621        1.52503        0.85706
