32
1sa1msa1a1eda_31.log	Energy: -1011240.5493267
S         -2.61415       -0.89260        0.13397
O         -2.30059       -2.09985        0.90301
O         -2.61626        0.35192        0.93306
O         -1.82080       -0.77409       -1.11170
O         -4.12889       -1.05185       -0.42995
H         -4.72460       -1.12484        0.32812
S          2.81859       -0.45902       -0.05782
O          2.92978        0.93465       -0.50570
O          2.75371       -1.48158       -1.12612
O          1.65620       -0.63244        0.90463
C          4.27411       -0.82688        0.90669
H          5.13713       -0.74982        0.24476
H          4.34323       -0.09816        1.71434
H          4.18247       -1.83784        1.30367
N          0.23520       -2.48780       -0.52572
H          0.59516       -1.94794        0.28779
H          1.05024       -2.56291       -1.14602
H         -0.15023       -3.38172       -0.23488
H         -0.52497       -1.91075       -0.95096
H          0.92924        2.11607       -0.94547
H         -0.57963        1.21898       -1.25668
H         -0.88573        3.67653       -1.71264
H         -1.93541        3.09932       -0.41278
H          0.52685        4.64874       -0.04364
H         -0.97294        4.96562        0.53159
H          0.61092        0.74523        0.89658
H          0.10673        2.30355        1.36526
C         -0.11223        1.98917       -0.64081
C         -0.89289        3.29539       -0.68344
N         -0.10002        1.49943        0.76418
N         -0.32664        4.22092        0.30078
H         -1.03852        1.11778        1.00534
