41
1sa1msa1tma1eda_125.log	Energy: -1085207.1221691
S          0.84743        0.79505       -0.49917
O          0.91405        1.60197        0.73183
O          0.95102       -0.66952       -0.21005
O         -0.34332        1.09672       -1.33024
O          2.08328        1.16322       -1.39871
H          2.95779        1.11097       -0.83060
S         -2.26505       -1.98084        0.07784
O         -3.02427       -0.93143       -0.60467
O         -2.05698       -1.79654        1.51050
O         -0.91710       -2.27158       -0.65964
H         -0.17363       -1.56695       -0.47537
C         -3.07731       -3.53627       -0.20662
H         -4.06194       -3.46701        0.25667
H         -3.16566       -3.68996       -1.28166
H         -2.48586       -4.32439        0.25819
H          4.78033        0.05469        1.91311
H          3.03690        0.11639        1.56819
H          3.88655       -2.15854        1.20179
H          3.32737       -1.44640       -0.31075
H          6.12578       -1.81882        0.47908
H          5.38755       -2.25287       -0.91365
H          4.35396        1.93400        0.52363
H          5.06341        0.78795       -0.43072
C          4.02387       -0.01769        1.11773
C          4.10729       -1.38549        0.45288
N          4.22218        1.02323        0.09523
N          5.41505       -1.54410       -0.19079
N         -2.23591        2.19703        0.18284
C         -1.63466        3.55275        0.22218
H         -0.63252        3.46103        0.64294
H         -1.56686        3.93659       -0.79614
H         -2.26222        4.20522        0.83411
C         -3.56566        2.18732       -0.46989
H         -3.46435        2.60258       -1.47332
H         -3.90647        1.15433       -0.53158
H         -4.25616        2.79527        0.12000
C         -2.27341        1.58564        1.53744
H         -2.68365        0.57977        1.46080
H         -1.25061        1.53259        1.91192
H         -2.89518        2.20943        2.18483
H         -1.57612        1.62346       -0.41556
