41
1sa1msa1tma1eda_70.log	Energy: -1085215.8114809
S         -2.60388        0.43404       -0.06021
O         -2.20372       -0.32536        1.12254
O         -2.56516        1.90888        0.10172
O         -1.92843        0.00272       -1.30380
O         -4.17388        0.06371       -0.23609
H         -4.49371        0.46424       -1.05569
S          2.92222       -0.27508       -0.02723
O          3.27199        1.15404        0.05252
O          2.48017       -0.71288       -1.38428
O          1.93414       -0.70141        1.01220
C          4.42229       -1.18004        0.32393
H          5.16875       -0.89378       -0.41725
H          4.75387       -0.91101        1.32707
H          4.20996       -2.24766        0.26201
H         -0.33319       -3.76546       -1.41854
H          1.05770       -3.66836       -0.30258
H         -0.83493       -4.81048        0.76468
H         -0.47301       -3.30073        1.60240
H         -2.91935       -3.93790        0.83648
H         -2.43615       -2.37464        0.74709
H         -0.81774       -1.43563       -0.93027
H          0.41726       -1.41426        0.22385
C          0.03291       -3.33441       -0.48474
C         -0.88213       -3.72115        0.67026
N          0.08220       -1.86248       -0.64999
N         -2.25308       -3.31407        0.40007
H          0.82338       -1.56698       -1.31146
N         -0.03849        2.84012        0.12716
C          0.07508        4.31321        0.20842
H         -0.39543        4.75713       -0.66941
H         -0.43013        4.66019        1.11025
H          1.13204        4.58478        0.24371
C          0.51700        2.18016        1.34213
H          0.00310        2.58344        2.21516
H          0.34720        1.10624        1.27511
H          1.59292        2.35383        1.38349
C          0.57089        2.31029       -1.12454
H          0.33918        1.24907       -1.20154
H          0.12662        2.83308       -1.97209
H          1.65269        2.43992       -1.08256
H         -1.05616        2.58054        0.09728
