32
1sa1msa1a1eda_105.log	Energy: -1011233.4906860
S          1.61711       -1.19383       -0.30911
O          0.86721       -2.16382       -1.13023
O          2.24677       -0.08801       -1.04449
O          0.73977       -0.67768        0.79947
O          2.76376       -2.03906        0.37718
H          3.49606       -1.40269        0.67639
S         -0.65284        2.35162        0.01100
O         -1.23032        3.59553        0.47177
O         -1.57524        1.31217       -0.48254
O          0.21688        1.75743        1.17564
H          0.47540        0.77484        1.00731
C          0.52977        2.66931       -1.27712
H         -0.02485        3.03098       -2.14371
H          1.21588        3.43403       -0.91257
H          1.06278        1.73967       -1.49466
N          4.57660       -0.14772        0.92180
H          4.44064        0.37871        1.77837
H          4.28952        0.43631        0.13903
H          5.56430       -0.35726        0.82744
H         -2.16522       -2.95498        0.69612
H         -1.43713       -1.48978        1.38562
H         -3.91398       -1.60474        1.89344
H         -3.50702       -0.20711        0.89019
H         -4.83633       -2.64432       -0.02488
H         -5.20557       -1.08177       -0.33904
H         -0.79473       -1.86782       -0.94151
H         -2.45850       -1.67683       -1.34898
C         -2.16804       -1.86192        0.66735
C         -3.56519       -1.29987        0.89876
N         -1.71720       -1.44429       -0.68219
N         -4.43862       -1.72733       -0.19660
H         -1.58493       -0.41429       -0.68830
