35
1sa1msa1ma1eda_101.log	Energy: -1035889.8659533
S          1.33161        1.82589        0.07124
O          2.69972        1.42406       -0.21729
O          0.36166        1.33644       -0.95760
O          0.84049        1.56569        1.43758
O          1.35198        3.44254       -0.07702
H          0.58450        3.79458        0.39353
S         -2.69164       -0.15630       -0.23552
O         -2.13002       -0.63672        1.02520
O         -2.57098       -1.03398       -1.39379
O         -2.14671        1.28345       -0.56560
H         -1.12971        1.30233       -0.70177
C         -4.40235        0.25217        0.01354
H         -4.91483       -0.67961        0.25434
H         -4.47224        0.95965        0.83904
H         -4.79302        0.68032       -0.90909
N          0.65460       -1.25461        1.61391
H          0.51668       -0.24250        1.76101
H          0.25634       -1.47871        0.65957
C          0.09973       -2.08384        2.69363
H          0.27904       -3.13582        2.46704
H          0.57969       -1.83017        3.63976
H         -0.97219       -1.90151        2.75635
H          1.66787       -1.40639        1.42376
H          2.72933       -0.66413       -1.65980
H          3.68679       -2.13874       -1.73991
H          1.58294       -2.71130       -2.57765
H          1.62937       -3.42689       -0.96216
H          0.37862       -0.80712       -1.46900
H         -0.47214       -2.19566       -1.44867
H          3.88970       -2.10865        0.50594
H          3.46689       -0.52714        0.36075
C          2.84810       -1.65949       -1.21956
C          1.58624       -2.47320       -1.50370
N          3.14691       -1.48296        0.21463
N          0.37383       -1.75696       -1.09709
