33
1sa1msa1ma1dma_160.log	Energy: -1001149.7118058
S          2.16868       -0.91586       -0.13996
O          2.71941        0.42312       -0.44272
O          2.23488       -1.28760        1.27078
O          0.84116       -1.09977       -0.77980
O          3.07889       -1.98249       -0.95566
H          3.91071       -2.09137       -0.47503
S         -2.41084       -0.53363       -0.29756
O         -2.66951       -0.68129       -1.71937
O         -1.95862        0.78661        0.16097
O         -1.42673       -1.64509        0.22998
H         -0.48330       -1.50669       -0.13170
C         -3.85172       -0.98359        0.63568
H         -4.64093       -0.28792        0.34955
H         -4.12286       -2.00610        0.37436
H         -3.61854       -0.89367        1.69619
N          0.77267        1.28150        2.26521
H          1.55861        0.64686        2.13606
C         -0.30794        0.55717        2.94175
H         -0.06838        0.26161        3.97273
H         -1.21306        1.17143        2.95349
H         -0.53090       -0.34918        2.37535
H          1.10553        2.03304        2.86158
N          0.44399        1.97162       -0.71791
C          0.51485        3.39664       -0.34476
C          0.03682        1.72229       -2.11931
H          1.36213        1.50792       -0.54668
H         -0.45948        3.85863       -0.51115
H          0.77805        3.45174        0.71050
H          1.27142        3.89166       -0.95526
H         -0.97188        2.10710       -2.27045
H          0.74309        2.21853       -2.78643
H          0.05290        0.64646       -2.28931
H         -0.22323        1.49700       -0.08822
