41
1sa1msa1tma1eda_124.log	Energy: -1085209.7241308
S         -0.00201       -1.69703       -0.28063
O         -1.02252       -2.62398       -0.77189
O          0.57738       -0.82064       -1.34273
O         -0.52852       -0.85393        0.84533
O          1.18415       -2.53764        0.29890
H          2.13322       -2.19987       -0.02685
S         -0.26227        2.53587       -0.29766
O         -1.60611        1.99260       -0.50639
O         -0.01759        3.93509       -0.58244
O          0.78423        1.70188       -1.12837
H          0.58752        0.70003       -1.18044
C          0.19302        2.19824        1.39089
H         -0.48629        2.76881        2.02610
H          0.08831        1.12310        1.55442
H          1.21930        2.53517        1.53843
H          4.66375       -0.08214       -1.03502
H          2.93749       -0.08422       -1.46336
H          3.32703        1.48565        0.37845
H          2.32843        0.13201        0.91851
H          5.15127        0.53014        1.56963
H          3.90244        0.18923        2.57030
H          3.84274       -2.33838       -1.22221
H          4.15996       -2.01479        0.36510
C          3.65611       -0.34992       -0.68670
C          3.33668        0.40874        0.59421
N          3.54673       -1.79275       -0.41882
N          4.27886        0.01830        1.64599
N         -3.17469       -0.65777        0.40200
C         -3.62211       -1.97857        0.90968
H         -3.06903       -2.74926        0.37214
H         -3.39199       -2.04192        1.97382
H         -4.69834       -2.07811        0.74995
C         -3.76991        0.46589        1.16304
H         -3.51798        0.34609        2.21776
H         -3.35070        1.39611        0.78004
H         -4.85509        0.44738        1.03685
C         -3.41733       -0.52571       -1.06054
H         -2.99051        0.42034       -1.39209
H         -2.91561       -1.35554       -1.55864
H         -4.49491       -0.55406       -1.24010
H         -2.12596       -0.63084        0.55286
