40
1sa1msa2eda_215.log	Energy: -1095280.9772757
S         -0.57745       -2.05911       -0.40421
O          0.75800       -2.71612       -0.39991
O         -1.71263       -2.95427       -0.33060
O         -0.64249       -1.22558        0.99953
O         -0.65639       -1.01342       -1.45711
H          0.15884       -0.65827        1.04023
H         -1.88143        0.10562       -1.11755
S          2.92877       -0.19034        0.41677
O          3.73395       -0.55272        1.56481
O          1.57613        0.34840        0.69191
O          2.81636       -1.34200       -0.62437
H          1.94258       -1.92291       -0.53454
C          3.79554        1.02407       -0.54828
H          3.97642        1.88312        0.09864
H          4.73913        0.58454       -0.87162
H          3.17729        1.29456       -1.40444
H          1.51737        2.89212       -0.22479
H          0.72949        4.12936       -1.21050
H         -0.01812        4.20823        1.11675
H         -1.35669        3.88436        0.00381
H          0.02783        1.71883        1.43015
H         -1.38241        2.38996        1.94423
H          0.53099        2.28485       -2.52755
H          0.26444        1.24541       -1.30231
C          0.56047        3.18714       -0.67984
C         -0.44446        3.45623        0.43740
N          0.06621        2.19026       -1.63168
N         -0.80805        2.21362        1.12589
H         -4.30885        1.61543       -0.22483
H         -4.30690        0.37483       -1.50678
H         -5.08120       -0.53563        0.66237
H         -3.61451       -1.34952        0.11217
H         -3.88991       -0.30584        2.54708
H         -2.44045       -0.42941        1.80639
H         -2.22301        1.66195       -1.51974
H         -1.90009        1.30964        0.04929
C         -3.84845        0.68384       -0.56359
C         -4.00810       -0.39934        0.49848
N         -2.41413        0.95265       -0.80849
N         -3.35763        0.00689        1.74478
