32
1sa1msa1a1eda_227.log	Energy: -1011227.7955481
S          1.28521       -1.61597        0.15888
O          1.38984       -0.87544       -1.11378
O          2.47197       -1.59434        1.00558
O          0.04162       -1.25468        0.89643
O          1.08248       -3.14878       -0.33695
H          1.29897       -3.72933        0.40551
S         -2.91091        0.24269       -0.03717
O         -2.37914        0.98404       -1.19061
O         -2.76813        0.87907        1.26312
O         -2.33040       -1.21685       -0.02086
H         -1.36719       -1.25413        0.32852
C         -4.61353       -0.12990       -0.36489
H         -4.67294       -0.67177       -1.30821
H         -4.99832       -0.72643        0.46153
H         -5.13568        0.82482       -0.43234
N          4.21449        0.39629       -0.81139
H          5.11709        0.32536       -1.26909
H          3.52264       -0.04572       -1.41295
H          4.24422       -0.18936        0.02011
H         -0.08212        2.99009        0.76159
H         -0.09069        1.27418        1.23446
H          2.01494        2.59570        1.96690
H          2.32718        1.11786        1.06462
H          2.95437        3.75871        0.23150
H          3.40097        2.28646       -0.40821
H         -0.65560        1.65675       -1.12230
H          0.92778        2.32059       -1.30125
C          0.42523        2.02997        0.64111
C          1.91395        2.12857        0.98187
N          0.32209        1.65974       -0.79654
N          2.61763        2.85543       -0.07462
H          0.70619        0.70248       -0.96185
