36
1sa1msa2dma_20.log	Energy: -1025830.4091268
S          2.25303        0.01819       -0.78732
O          1.37168       -0.92661       -1.75183
O          3.62651       -0.25368       -1.14187
O          1.77332        1.40697       -1.01099
O          1.87598       -0.40551        0.60780
H          0.75050        1.90585        0.14579
H          0.81888       -1.54908        0.81193
S         -2.15387        0.11201       -0.57666
O         -2.16349        1.51131       -1.01170
O         -1.76617       -0.01759        0.87912
O         -1.32978       -0.80878       -1.40041
H          0.41610       -0.68703       -1.70604
C         -3.82625       -0.49662       -0.69179
H         -4.45900        0.12685       -0.05998
H         -4.13283       -0.42249       -1.73540
H         -3.84765       -1.53446       -0.35865
N          0.13912        2.20399        0.95817
C         -0.47775        3.51170        0.64809
C          0.96502        2.19574        2.18369
H         -0.59403        1.47626        1.02666
H          0.31530        4.24370        0.48876
H         -1.07964        3.39334       -0.25140
H         -1.10975        3.82101        1.48272
H          1.74280        2.95478        2.08808
H          0.33639        2.41564        3.04881
H          1.43120        1.21433        2.26954
N          0.00152       -2.16213        1.10635
C          0.18233       -2.51068        2.52753
C         -0.12475       -3.31986        0.19813
H         -0.80666       -1.51389        1.00788
H          1.09843       -3.09204        2.64112
H          0.26540       -1.58849        3.10313
H         -0.67349       -3.08951        2.87965
H          0.80539       -3.88947        0.21932
H         -0.95667       -3.94888        0.52198
H         -0.30778       -2.94322       -0.80674
