30
1sa1msa2ma_132.log	Energy: -976480.8801932
S          1.42215       -0.16056        0.67172
O          0.23045        0.12299        1.49160
O          2.51911       -0.85189        1.37456
O          0.98714       -1.21543       -0.45217
O          1.91220        1.04771       -0.04629
H          0.08541       -0.99144       -0.80344
H          3.58598        0.79331       -0.35617
S         -2.66425       -0.81127       -0.28352
O         -3.50324       -1.94876       -0.58725
O         -1.49479       -0.54441       -1.14114
O         -2.15730       -0.97029        1.21025
H         -1.26351       -0.54521        1.34594
C         -3.63873        0.66742       -0.23270
H         -4.02046        0.83039       -1.24166
H         -4.45862        0.49357        0.46475
H         -2.98865        1.49117        0.09524
N          4.38601        0.11422       -0.27381
H          5.26713        0.58946       -0.09602
C          4.42523       -0.77619       -1.46039
H          5.18151       -1.54649       -1.31344
H          3.44103       -1.23530       -1.56000
H          4.65156       -0.18690       -2.34827
H          4.06169       -0.41633        0.56453
N         -1.22299        2.70585        0.49024
H         -1.20455        3.57335        1.01517
C         -0.77512        2.92255       -0.88538
H          0.24590        3.31776       -0.97287
H         -0.81069        1.96949       -1.42003
H         -1.46108        3.61334       -1.38659
H         -0.59710        2.05658        0.96093
