41
1sa1msa1tma1eda_128.log	Energy: -1085209.8040818
S         -0.14210       -1.60753       -0.30491
O         -0.78980       -0.61199       -1.20718
O          0.75258       -2.53879       -0.98921
O          0.54285       -0.89377        0.82556
O         -1.29351       -2.47093        0.32249
H         -2.02671       -1.87486        0.75977
S          0.55222        2.54686       -0.13919
O          0.49813        3.97894       -0.34935
O          1.79937        1.83566       -0.42817
O         -0.63015        1.90762       -0.95877
H         -0.58449        0.88912       -1.04732
C          0.11221        2.18825        1.54950
H          0.88673        2.62106        2.18455
H         -0.84989        2.65875        1.75453
H          0.07182        1.10152        1.65707
H         -3.95342        0.96754        1.40467
H         -2.33194        0.77468        0.70782
H         -3.97033        1.09499       -1.08093
H         -3.24235       -0.50970       -1.16872
H         -5.95752        0.09995       -0.25817
H         -5.45939       -1.03641       -1.32268
H         -2.96175       -0.92415        2.43154
H         -4.05129       -1.50177        1.33998
C         -3.31320        0.30466        0.80428
C         -3.91799        0.11830       -0.58191
N         -3.16035       -1.01373        1.43987
N         -5.21329       -0.55747       -0.46508
N          3.17124       -0.90758        0.19514
C          3.93648        0.07803        0.99469
H          3.62537        1.07804        0.69394
H          3.71418       -0.08093        2.05089
H          5.00403       -0.06868        0.81481
C          3.46900       -2.30529        0.59816
H          3.25566       -2.41617        1.66176
H          2.81699       -2.96550        0.02599
H          4.52250       -2.51607        0.39996
C          3.36978       -0.71093       -1.26670
H          2.72929       -1.42140       -1.78948
H          3.07599        0.30779       -1.51594
H          4.42273       -0.88485       -1.50161
H          2.14506       -0.76296        0.40279
