40
1sa1msa2eda_191.log	Energy: -1095281.9617062
S          0.00541       -1.63099       -0.45316
O          1.18184       -2.36563       -0.88474
O         -1.20439       -2.44951       -0.22067
O          0.24789       -0.70687        0.69629
O         -0.34124       -0.65932       -1.70314
H          1.07745        0.71613        0.51703
H         -1.19973       -0.22386       -1.50379
S         -3.44531        0.08815        0.36576
O         -4.78574        0.62347        0.43705
O         -2.53933        0.61904       -0.66817
O         -3.54964       -1.47331        0.20522
H         -2.63937       -1.88443        0.02206
C         -2.63119        0.28898        1.93530
H         -2.55481        1.36115        2.12237
H         -3.24686       -0.19072        2.69607
H         -1.64046       -0.16715        1.86347
H          2.22029        2.77306       -1.27405
H          1.50887        1.19612       -1.70224
H         -0.06821        3.09231       -2.20722
H         -0.72773        1.96979       -1.01596
H          0.30905        4.63467       -0.44377
H         -1.07417        3.92227        0.05404
H          2.62356        1.47238        0.57754
H          1.19233        2.34849        0.95169
C          1.41863        2.06339       -1.04623
C          0.04852        2.71960       -1.18229
N          1.59657        1.61590        0.35675
N         -0.09699        3.75177       -0.15231
H          5.73487       -0.32855        1.30907
H          4.44043        0.09572        2.44090
H          4.08933       -2.14389        1.36812
H          2.76360       -1.03450        1.05374
H          4.76834       -1.87476       -0.86909
H          3.13753       -1.74368       -1.00805
H          4.99952        1.90123        0.86289
H          4.50668        0.91249       -0.36172
C          4.66828       -0.07008        1.38303
C          3.82058       -1.21951        0.83823
N          4.36025        1.15104        0.62062
N          3.96788       -1.30671       -0.61329
