36
1sa1msa2dma_121.log	Energy: -1025813.4974454
S          0.07748       -1.40015       -0.65957
O          0.19841        0.07314       -0.37909
O         -0.92463       -1.70247       -1.66995
O          1.41775       -1.98553       -0.85625
O         -0.39136       -2.04463        0.73923
H         -1.24287       -1.61812        0.99533
S         -3.15634        0.55234        0.42477
O         -4.14079        1.43488        1.00978
O         -2.60450       -0.53067        1.25060
O         -1.96195        1.44935       -0.09940
H         -1.12266        0.89737       -0.23630
C         -3.80409       -0.17538       -1.06218
H         -4.64048       -0.81028       -0.76699
H         -4.14122        0.63150       -1.71260
H         -3.00964       -0.76466       -1.52638
N          3.04152       -0.47292        0.70758
C          2.36981       -0.37991        2.02216
C          4.40723       -1.02320        0.76659
H          2.45415       -1.07271        0.07531
H          2.96233        0.25464        2.68475
H          1.37991        0.04807        1.86658
H          2.26573       -1.37769        2.45054
H          5.03677       -0.37831        1.38333
H          4.37758       -2.02576        1.19633
H          4.81303       -1.07628       -0.24424
H          3.06118        0.50015        0.26755
N          2.99861        2.07022       -0.43890
C          1.98520        2.84567        0.28638
C          2.61804        1.83906       -1.83873
H          3.87828        2.57818       -0.41611
H          1.05680        2.27127        0.31407
H          2.31991        3.02087        1.31233
H          1.77927        3.81456       -0.18884
H          1.70741        1.23520       -1.85473
H          2.43185        2.77710       -2.37969
H          3.41302        1.28866       -2.34882
