38
1sa1msa1dma1eda_85.log	Energy: -1060561.5410812
S         -2.85307       -0.14826        0.03587
O         -1.98012       -0.10344       -1.15964
O         -2.66350       -1.38733        0.82425
O         -2.84331        1.07820        0.83090
O         -4.33188       -0.27487       -0.63084
H         -4.98246       -0.25921        0.08413
S          2.71168       -0.30121       -0.24441
O          2.63317        0.34086       -1.56907
O          3.00421       -1.74072       -0.23260
O          1.43711       -0.01359        0.54455
C          3.99651        0.53156        0.66879
H          4.93213        0.39692        0.12527
H          3.73459        1.58843        0.73813
H          4.06150        0.08100        1.65933
N         -0.10452       -2.30399        0.38758
C         -0.04004       -2.75998       -1.02111
C          0.46478       -3.26213        1.35747
H          0.43112       -1.41078        0.46785
H         -0.57415       -3.70719       -1.11183
H         -0.52584       -2.00370       -1.63788
H          1.00829       -2.87681       -1.29859
H         -0.06664       -4.21203        1.28199
H          1.52362       -3.39279        1.12941
H          0.34845       -2.85237        2.36103
H         -1.09266       -2.06824        0.62354
H          0.90668        3.60336       -1.06215
H         -0.84945        3.53884       -1.38357
H         -0.48680        4.34700        0.86631
H         -1.19423        2.72823        0.97460
H          0.84889        3.29700        2.40144
H          0.98567        1.90284        1.56249
H         -0.82795        1.18201       -1.22644
H          0.61761        1.52417       -2.01083
C         -0.03304        3.11662       -0.79377
C         -0.28801        3.28436        0.69804
N          0.08750        1.67630       -1.15168
N          0.90204        2.91236        1.46557
H          0.62199        1.13657       -0.43473
