24
1sa1msa2a_60.log	Energy: -927170.3637555
S         -2.14161       -0.54007        0.01362
O         -2.00298        0.19212       -1.25189
O         -1.18353       -1.65383        0.19484
O         -2.22824        0.34309        1.19280
O         -3.58096       -1.27289       -0.12875
H         -3.64632       -1.94168        0.56649
S          2.17113       -0.43998       -0.02335
O          1.81437        0.20925        1.23718
O          2.15990        0.40519       -1.21533
O          1.32177       -1.74046       -0.24225
H          0.32279       -1.62717       -0.06902
C          3.77349       -1.19172        0.12743
H          4.49302       -0.38383        0.26351
H          3.76485       -1.85551        0.99121
H          3.98151       -1.74074       -0.79064
N         -1.46576        2.64295       -0.11530
H         -2.02848        3.48216       -0.21465
H         -0.41491        2.86571       -0.02659
H         -1.77842        2.07572        0.69405
H         -1.62602        1.99100       -0.90359
N          1.25591        2.97765        0.12906
H          1.66760        2.50065       -0.67366
H          1.50063        2.38595        0.92365
H          1.71686        3.87460        0.24124
