36
1sa1msa2dma_232.log	Energy: -1025798.1484006
S         -1.30412       -0.05729        1.09278
O         -1.59627        1.37110        1.19397
O         -0.10089       -0.52945        1.79370
O         -2.50332       -0.89654        1.39474
O         -1.07912       -0.36332       -0.48667
H         -3.57340       -0.63105        0.38687
H         -0.11774       -0.49414       -0.68724
S          2.69990       -0.84156       -0.34534
O          3.62166        0.11532       -0.92297
O          1.42770       -1.10804       -1.02994
O          2.43151       -0.49878        1.17025
H          1.45143       -0.39031        1.36504
C          3.54387       -2.39924       -0.18408
H          3.80096       -2.73298       -1.18987
H          4.44418       -2.23685        0.40837
H          2.87376       -3.10641        0.30370
N         -4.26444       -0.46211       -0.44023
C         -3.99195       -1.50297       -1.46039
C         -4.07511        0.92503       -0.93657
H         -5.20771       -0.56981       -0.07059
H         -2.94155       -1.41590       -1.73957
H         -4.16594       -2.48304       -1.01639
H         -4.63900       -1.35517       -2.32690
H         -3.05423        1.01139       -1.30866
H         -4.79583        1.13209       -1.72985
H         -4.20000        1.61667       -0.10418
N          1.08455        2.00756       -0.15301
C          1.04593        2.30985       -1.57231
C          2.12782        2.73666        0.54945
H          0.18288        2.20470        0.27088
H          1.97089        1.95837       -2.04097
H          0.20980        1.77797       -2.03713
H          0.93760        3.38808       -1.79074
H          3.10583        2.40596        0.18620
H          2.05994        3.83133        0.41526
H          2.07130        2.51411        1.61835
