36
1sa1msa2dma_119.log	Energy: -1025812.6500252
S          0.06719        0.38969       -0.91226
O         -1.07255        0.46496       -1.84488
O          1.37143        0.72471       -1.48012
O         -0.17181        1.51593        0.20861
O          0.09336       -0.91545       -0.18021
H         -1.07752        1.39392        0.58347
H          1.69496       -1.28724        0.02885
S         -3.63658       -0.00837        0.43337
O         -5.02739        0.07455        0.81639
O         -2.67655        0.90860        1.06298
O         -3.56190        0.16158       -1.13564
H         -2.61141        0.29922       -1.43781
C         -3.03896       -1.66464        0.69151
H         -3.10399       -1.86133        1.76243
H         -3.68360       -2.34380        0.13380
H         -2.00249       -1.71098        0.34790
N          3.91601        0.88437        0.96497
C          2.91516        1.55482        1.80545
C          4.23666        1.66429       -0.23815
H          4.76509        0.75549        1.50811
H          1.97462        1.63642        1.25484
H          2.73817        0.96383        2.70839
H          3.23022        2.56467        2.10257
H          3.33677        1.73993       -0.85310
H          4.59076        2.67604        0.00353
H          5.01190        1.14807       -0.81140
N          2.72491       -1.48395        0.11903
C          3.25877       -1.82618       -1.21493
C          2.93546       -2.51993        1.14462
H          3.18268       -0.57160        0.44472
H          2.79456       -2.74870       -1.56837
H          3.00944       -1.00886       -1.89176
H          4.34098       -1.95850       -1.14905
H          2.45347       -3.44871        0.83447
H          4.00536       -2.69045        1.28190
H          2.49460       -2.18064        2.08279
