32
1sa1msa1a1eda_259.log	Energy: -1011225.9932719
S         -2.50639        0.10379       -0.18291
O         -2.95785       -0.05147        1.19526
O         -2.35521        1.50107       -0.63759
O         -1.30936       -0.70247       -0.54317
O         -3.64515       -0.56568       -1.12846
H         -4.50748       -0.26921       -0.80689
S          1.66840       -1.90038       -0.03914
O          2.75317       -2.53197        0.67771
O          1.86675       -0.53609       -0.54643
O          0.39610       -1.92955        0.89800
H         -0.37173       -1.44751        0.44312
C          1.16658       -2.91079       -1.41565
H          1.98568       -2.91205       -2.13546
H          0.97613       -3.91682       -1.04235
H          0.26514       -2.47242       -1.84723
N         -0.28515        0.51421        2.78384
H         -0.25081        0.78865        3.75997
H          0.16987       -0.39091        2.70467
H         -1.26486        0.37542        2.53892
H          0.30431        3.49287        0.45402
H          0.54465        1.92874        1.28188
H          2.68914        3.27339        1.19213
H          2.82036        1.75433        0.29715
H          2.54401        4.41721       -0.88124
H          3.58268        3.21677       -1.27462
H         -0.66699        1.81231       -0.88381
H          0.80455        2.30501       -1.61774
C          0.83066        2.53481        0.41314
C          2.33625        2.73519        0.30382
N          0.37260        1.83354       -0.81584
N          2.63906        3.41053       -0.96223
H          0.70930        0.85596       -0.80050
