32
1sa1msa1a1eda_251.log	Energy: -1011227.3713204
S          0.36224       -0.16245        0.62053
O          0.91679       -0.87878       -0.53867
O         -0.82175       -0.81336        1.21944
O          1.39686        0.22888        1.59846
O         -0.15447        1.27360        0.06897
H         -1.03314        1.15625       -0.37094
S         -3.60000       -0.11826       -0.39972
O         -4.81822       -0.33564       -1.14352
O         -2.61750        0.83759       -0.92878
O         -2.90277       -1.52552       -0.20103
H         -2.03109       -1.39532        0.27646
C         -3.97816        0.37516        1.26890
H         -4.43702        1.36307        1.21757
H         -4.67208       -0.35375        1.68718
H         -3.04381        0.40253        1.83243
N          2.22582        3.22901       -0.53843
H          2.36875        3.94970        0.16217
H          1.32620        2.78699       -0.33661
H          2.13790        3.69608       -1.43552
H          5.32237        0.30194       -0.93075
H          5.18133        0.49930        0.83849
H          5.51510       -1.91335        0.10547
H          4.03590       -1.66413        1.03570
H          4.11597       -2.81321       -1.42080
H          2.77577       -2.03290       -0.86143
H          3.32759        1.70526       -0.42123
H          2.90204        0.19494       -1.00167
C          4.71872        0.06681       -0.05150
C          4.52692       -1.44646        0.07736
N          3.38503        0.67865       -0.23335
N          3.76705       -1.93309       -1.06775
H          2.77054        0.51889        0.59965
