32
1sa1msa1a1eda_169.log	Energy: -1011228.5625969
S         -2.05792       -1.16062        0.17498
O         -0.88341       -0.80854        1.04283
O         -3.29960       -0.61292        0.72620
O         -1.79865       -0.89652       -1.23644
O         -2.18426       -2.77864        0.26463
H         -2.60387       -2.99454        1.10850
S          2.36341       -0.72829       -0.16499
O          3.05365        0.28809        0.62648
O          1.60355       -0.24790       -1.32010
O          1.46522       -1.63272        0.74266
H          0.48299       -1.30398        0.82560
C          3.55246       -1.92861       -0.70942
H          4.27136       -1.40185       -1.33733
H          4.04101       -2.34937        0.16907
H          3.02691       -2.69710       -1.27523
N         -3.26514        2.01135       -0.81056
H         -3.55415        1.69336       -1.73127
H         -3.80522        2.84041       -0.58637
H         -3.53379        1.26776       -0.16071
H          1.44230        2.21728       -1.15113
H          0.15929        3.38056       -1.55774
H          1.57999        4.08707        0.42589
H         -0.13926        3.95309        0.81964
H          1.85428        1.87788        1.45977
H          0.86973        2.71108        2.50049
H         -0.31355        0.80091       -1.23862
H         -0.34393        1.22755        0.34535
C          0.51986        2.68279       -0.79936
C          0.75091        3.37546        0.54570
N         -0.47114        1.59904       -0.61377
N          0.96000        2.35383        1.55897
H         -1.47947        1.89850       -0.70960
