41
1sa1msa1tma1eda_163.log	Energy: -1085204.5751144
S          0.08998        1.81493        0.48626
O          0.80825        3.03531        0.20023
O         -0.27864        0.99011       -0.71537
O          0.75404        0.91791        1.47501
O         -1.30243        2.27234        1.13706
H         -1.91092        1.50373        1.19623
S         -3.14843       -0.45201       -0.50222
O         -2.99772        0.08915        0.85697
O         -2.60285       -1.78674       -0.72237
O         -2.59027        0.57284       -1.54695
H         -1.62196        0.83597       -1.27784
C         -4.86587       -0.43538       -0.94243
H         -5.24587        0.57708       -0.81022
H         -4.95592       -0.76043       -1.97864
H         -5.37090       -1.13182       -0.27260
H          5.23771        0.43933       -1.77820
H          3.86763        0.15365       -2.85907
H          3.33180        1.91814       -1.23560
H          2.27666        0.52635       -1.04418
H          4.52324        1.20704        0.69975
H          2.94189        1.05925        1.08016
H          4.70714       -1.93897       -2.08072
H          4.50492       -1.48687       -0.52073
C          4.21011        0.03989       -1.82535
C          3.30865        0.86664       -0.91845
N          4.13475       -1.37663       -1.46029
N          3.67976        0.68155        0.48885
N          0.87836       -1.71156        0.99044
C          2.14235       -2.04308        1.69415
H          2.94472       -1.44480        1.25497
H          2.03151       -1.78198        2.74746
H          2.33627       -3.11303        1.58932
C         -0.30825       -2.25426        1.69718
H         -0.38187       -1.77475        2.67382
H         -1.20002       -2.04087        1.10888
H         -0.18626       -3.33377        1.81294
C          0.91068       -2.12953       -0.43687
H          0.04712       -1.69497       -0.93907
H          1.84651       -1.78909       -0.88858
H          0.85630       -3.22050       -0.47703
H          0.79647       -0.66190        1.03535
