30
1sa1msa2ma_94.log	Energy: -976492.1114079
S         -0.69589       -1.28303        0.42079
O         -0.57867       -0.46703       -0.84263
O         -0.27621       -0.48946        1.58610
O         -2.02826       -1.89061        0.52617
O          0.30509       -2.50521        0.25779
H          1.20780       -2.14100        0.09249
S          2.81037        0.29451       -0.39524
O          4.02088        0.79307       -1.00679
O          2.62096       -1.15594       -0.27337
O          1.58138        0.90144       -1.19112
H          0.75181        0.33248       -1.07440
C          2.62670        1.00403        1.22525
H          3.45637        0.63561        1.83000
H          2.67699        2.08826        1.12425
H          1.66898        0.67192        1.63221
N         -2.22654        1.77817        1.18924
H         -2.81200        2.25031        1.87146
C         -1.25781        2.71653        0.60192
H         -0.63072        3.21160        1.35185
H         -0.60436        2.16415       -0.07651
H         -1.78503        3.48437        0.02922
H         -1.70885        1.04737        1.68435
N         -3.27617        0.17780       -0.79689
H         -2.99156        0.88621       -0.03156
H         -2.49030        0.16193       -1.45517
C         -4.58326        0.45070       -1.41813
H         -4.80743       -0.31080       -2.16518
H         -5.35320        0.43887       -0.64681
H         -4.56160        1.43216       -1.89228
H         -3.20461       -0.74644       -0.33251
