33
1sa1msa1ma1dma_202.log	Energy: -1001136.7247443
S          2.29991        0.17722       -0.50429
O          1.63794       -1.03828       -1.01307
O          3.46726        0.60488       -1.29992
O          1.26752        1.37995       -0.65974
O          2.63769        0.07461        0.94543
H          0.37987        1.08954       -0.33212
H          4.16913        0.66781        1.18027
S         -1.65787       -0.93558       -0.02089
O         -2.46759       -1.03821       -1.22263
O         -1.05394        0.37579        0.27223
O         -0.52322       -2.03342       -0.00375
H          0.33783       -1.67435       -0.39583
C         -2.61404       -1.43440        1.38238
H         -3.48020       -0.76160        1.39719
H         -2.92475       -2.46733        1.22379
H         -1.99489       -1.33778        2.27344
N          5.10587        0.94047        0.76688
H          4.79669        1.06676       -0.22343
C          6.08212       -0.16525        0.88576
H          7.00028        0.09327        0.35902
H          6.29071       -0.35456        1.93822
H          5.63477       -1.05057        0.43505
H          5.44128        1.81685        1.15845
N         -4.76720        0.72144        0.15603
C         -4.19637        2.04991        0.32615
C         -6.21852        0.73501        0.08372
H         -4.38297        0.29574       -0.68312
H         -4.49466        2.45167        1.30124
H         -3.10574        1.98397        0.30380
H         -4.52188        2.76779       -0.44655
H         -6.62929        1.07265        1.04194
H         -6.61333        1.40251       -0.70228
H         -6.59053       -0.27614       -0.10297
