24
1sa1msa2a_21.log	Energy: -927178.8446714
S         -2.15406        0.02027        0.16441
O         -1.37628        0.87924        1.10615
O         -3.48254        0.49644       -0.14911
O         -1.33291        0.14193       -1.23833
O         -2.06508       -1.41162        0.56047
H         -0.38519       -0.12121       -1.09166
H         -1.02499       -2.41090        0.02075
S          2.22070        0.03655       -0.03969
O          3.53923       -0.55166       -0.22035
O          1.13239       -0.73518       -0.76745
O          2.11082        1.48177       -0.38559
H          0.73991        2.31424       -0.43421
C          1.77881       -0.08907        1.68738
H          1.89736       -1.12978        1.99315
H          2.46549        0.54188        2.25293
H          0.74241        0.23628        1.80751
N         -0.22147        2.76248       -0.37840
H         -0.68468        2.68411       -1.28238
H         -0.16142        3.73471       -0.09062
H         -0.77280        2.17499        0.31078
N         -0.20049       -2.97240       -0.38146
H          0.54986       -2.24713       -0.54365
H         -0.46549       -3.40469       -1.26285
H          0.10914       -3.68524        0.27311
