35
1sa1msa1ma1eda_281.log	Energy: -1035871.9793983
S         -1.79205       -0.21611       -0.72661
O         -0.62520       -0.28316       -1.61419
O         -3.08799       -0.50827       -1.36771
O         -1.65125       -1.39234        0.35556
O         -1.86001        1.05347        0.05718
H         -0.72045       -1.41690        0.70076
H         -3.49942        1.19084        0.58764
S          2.03505       -1.76027        0.21930
O          2.28955       -3.18124        0.10569
O          0.91038       -1.32242        1.06471
O          1.84228       -1.12662       -1.22443
H          0.89868       -0.82999       -1.37359
C          3.49772       -0.92699        0.76341
H          3.76343       -1.37301        1.72304
H          4.27779       -1.12306        0.02690
H          3.29855        0.14805        0.87297
N         -4.45980        0.76315        0.54628
H         -5.18358        1.47584        0.50109
C         -4.64908       -0.19972        1.66046
H         -5.60710       -0.70501        1.54380
H         -3.83522       -0.92391        1.60901
H         -4.61348        0.33380        2.60956
H         -4.36980        0.25267       -0.35997
H          3.01661        3.78820       -0.56262
H          3.53637        2.15871       -1.02448
H          1.22479        2.48585       -1.71624
H          1.29639        1.27209       -0.44341
H          0.34365        3.99979       -0.11858
H         -0.37278        2.57504        0.27816
H          4.04453        2.81158        1.34538
H          2.42839        2.70262        1.61937
C          2.87504        2.71514       -0.34931
C          1.42892        2.33668       -0.64613
N          3.18989        2.36268        1.03490
N          0.51664        3.06456        0.23499
