33
1sa1msa1ma1dma_09.log	Energy: -1001170.6247637
S          2.22231        0.21089       -0.39463
O          2.23970       -1.18039       -0.90589
O          3.49378        0.89956       -0.35196
O          1.33850        1.08136       -1.44113
O          1.42875        0.25943        0.87976
H          0.53503        1.60556        1.04416
S         -2.29453        0.21840       -0.15113
O         -2.34641        0.84766        1.18354
O         -2.01665       -1.24093       -0.12703
O         -1.36824        0.95452       -1.07343
H          0.40631        0.76844       -1.44992
C         -3.91546        0.37832       -0.87619
H         -4.62446       -0.13924       -0.22978
H         -4.15552        1.43951       -0.94193
H         -3.89210       -0.07485       -1.86714
N         -0.06256        2.46707        0.89823
H         -0.54676        2.26510        0.00741
C          0.77147        3.68439        0.85292
H          0.15257        4.55201        0.62377
H          1.26270        3.81916        1.81613
H          1.52572        3.54636        0.07792
H         -0.79799        2.46587        1.60606
N          0.29487       -2.56393        0.36399
C          0.59693       -2.68036        1.80512
C          0.04663       -3.84966       -0.31577
H         -0.54717       -1.95672        0.23562
H          1.47954       -3.30861        1.93671
H          0.79805       -1.67921        2.18460
H         -0.25944       -3.12227        2.31731
H          0.93233       -4.48146       -0.23144
H         -0.81167       -4.34236        0.14374
H         -0.16432       -3.65223       -1.36660
H          1.08358       -2.06148       -0.11730
