32
1sa1msa1a1eda_113.log	Energy: -1011232.0617654
S         -0.31422        1.73889        0.36194
O         -1.61331        1.55730        0.99896
O          0.87604        1.66184        1.21747
O         -0.16583        0.76497       -0.80576
O         -0.34443        3.17427       -0.30778
H          0.59284        3.37735       -0.63358
S          2.03666       -1.81376       -0.05226
O          3.02877       -2.74155       -0.55046
O          0.67804       -2.31799        0.20788
O          1.95392       -0.61204       -1.07003
H          1.12267       -0.03051       -0.92825
C          2.61245       -1.05622        1.44813
H          2.62201       -1.83052        2.21583
H          3.62004       -0.68312        1.26430
H          1.93437       -0.23756        1.70246
N          2.25804        3.40345       -0.93677
H          2.52807        2.79470       -1.70295
H          2.58350        2.97680       -0.07233
H          2.72459        4.29564       -1.05693
H         -2.89399       -2.37131        0.93930
H         -2.13265       -0.84178        1.46740
H         -4.61729       -0.57420        1.15834
H         -3.66050        0.47107        0.10728
H         -5.12904       -1.92775       -0.71322
H         -5.05402       -0.46492       -1.43892
H         -0.99242       -2.00535       -0.41496
H         -2.38432       -1.62530       -1.33962
C         -2.67321       -1.33704        0.66099
C         -3.93835       -0.56918        0.29712
N         -1.79776       -1.37154       -0.53753
N         -4.51526       -1.14726       -0.91985
H         -1.34895       -0.43761       -0.70967
