38
1sa1msa1dma1eda_154.log	Energy: -1060547.2656424
S         -1.07210       -0.42862        0.20858
O         -1.57553       -1.70605        0.70724
O          0.05093       -0.55082       -0.78134
O         -2.23169        0.26094       -0.62724
O         -0.69138        0.54801        1.26121
H         -3.11685       -0.28425       -0.49341
H          0.66114        1.38779        0.79914
S          3.25461       -1.10405        0.05930
O          3.10870       -1.11373        1.50508
O          3.37692        0.22686       -0.56620
O          2.12791       -1.92260       -0.65024
H          1.22208       -1.40742       -0.66303
C          4.66480       -2.07378       -0.41055
H          4.52777       -3.07957       -0.01404
H          4.73778       -2.08294       -1.49738
H          5.53847       -1.59918        0.03678
N         -4.31303       -1.20510       -0.14716
C         -5.31063       -1.41403       -1.19216
C         -4.88309       -0.76674        1.12691
H         -3.77382       -2.05429        0.01221
H         -5.79978       -0.46184       -1.41766
H         -4.81856       -1.77028       -2.09982
H         -6.08300       -2.13832       -0.89713
H         -5.34230        0.21764        0.99589
H         -5.64656       -1.46152        1.50375
H         -4.08091       -0.68405        1.86322
H          1.54440        3.09628       -1.45967
H          0.39571        1.73290       -1.50706
H         -0.82198        3.93101       -1.38664
H         -1.12633        2.91760        0.02759
H          0.55907        5.30608       -0.04835
H         -0.54116        4.84870        1.07301
H          2.20415        1.41602        0.08870
H          1.61780        2.76705        0.94616
C          0.76343        2.56639       -0.90679
C         -0.36060        3.50496       -0.48704
N          1.37749        1.99604        0.31817
N          0.17160        4.50671        0.44062
