40
1sa1msa2eda_101.log	Energy: -1095296.0835433
S         -0.48393       -1.72219        0.83529
O         -0.90248       -0.40440        1.63841
O          0.70809       -2.29358        1.44993
O         -1.71254       -2.55462        0.92478
O         -0.26622       -1.28822       -0.57998
H         -2.63378       -2.07261       -0.25974
H          1.26460       -0.69879       -0.95869
S          0.62686        2.54740        0.13230
O         -0.79389        2.69769       -0.22687
O          1.53792        2.39973       -1.03822
O          0.87141        1.46539        1.13655
H         -0.23472        0.32536        1.48036
C          1.11348        4.06380        0.93679
H          0.47525        4.20354        1.80935
H          2.15891        3.97471        1.23204
H          0.98043        4.87903        0.22528
H         -5.06367       -0.61847       -1.19229
H         -4.64344       -1.14950        0.45809
H         -4.30296        1.35917        0.09766
H         -2.82179        0.51451        0.56881
H         -3.42357        1.56307       -2.06590
H         -2.01311        1.53427       -1.22222
H         -3.61952       -2.37242       -1.61362
H         -2.60951       -1.02233       -1.60260
C         -4.25282       -0.71867       -0.46530
C         -3.55692        0.62692       -0.23342
N         -3.22895       -1.63512       -1.03394
N         -2.84840        0.99493       -1.45426
H          3.96845        0.12477       -0.06548
H          2.58240       -0.35062        0.93943
H          4.23922       -2.23139        0.73408
H          2.66531       -2.64119        0.05455
H          5.08578       -1.98611       -1.47009
H          4.05365       -3.23697       -1.67155
H          2.02606        0.77600       -1.20487
H          2.61712       -0.64205       -1.96781
C          3.11455       -0.55510        0.01072
C          3.54727       -2.01098       -0.08844
N          2.20070       -0.25187       -1.11771
N          4.10954       -2.25751       -1.42053
