33
1sa1msa1ma1dma_30.log	Energy: -1001159.2868348
S         -0.67158       -2.06257        0.06670
O         -1.05391       -0.71926       -0.37132
O          0.07139       -1.91863        1.45217
O         -1.68569       -3.06995        0.21231
O          0.42923       -2.60850       -0.91316
H          1.12958       -1.90049       -1.06787
S          2.28143        0.40427       -0.16918
O          1.62889        1.63826       -0.67409
O          2.22890       -0.73012       -1.12524
O          1.78125        0.03139        1.18823
H          0.75987       -1.18389        1.39773
C          4.00630        0.79418        0.02966
H          4.40167        1.08255       -0.94425
H          4.08986        1.61426        0.74267
H          4.51007       -0.09700        0.40362
N         -3.20457        0.98446       -1.08824
H         -3.73617        1.41382       -1.83848
C         -4.09571        0.52581       -0.01426
H         -4.88307       -0.15374       -0.35958
H         -3.49676       -0.00616        0.72817
H         -4.56534        1.38806        0.46754
H         -2.71147        0.18108       -1.47305
N         -0.93626        2.16052        0.09765
C         -1.00234        1.83740        1.53874
C         -0.89766        3.60689       -0.18833
H         -0.06317        1.74164       -0.28945
H         -1.89061        2.30288        1.97068
H         -1.05270        0.75496        1.64133
H         -0.10087        2.20458        2.03042
H         -1.80422        4.07827        0.19606
H         -0.01742        4.04468        0.28411
H         -0.83363        3.75024       -1.26711
H         -1.77138        1.73102       -0.39470
