27
1sa1msa1a1ma_05.log	Energy: -951848.4159546
S          2.25531       -0.33280       -0.33045
O          2.19912        0.87990       -1.15329
O          3.50792       -1.04732       -0.22510
O          1.61729       -0.05137        1.02630
O          1.23020       -1.40778       -0.98917
H          0.36453       -0.95937       -1.16032
S         -2.22740       -0.18173       -0.12105
O         -2.31565        1.07482        0.66554
O         -2.14384       -1.40180        0.72952
O         -1.13941       -0.11677       -1.13547
C         -3.75761       -0.33063       -1.01826
H         -4.57058       -0.36064       -0.29293
H         -3.85163        0.53678       -1.67149
H         -3.72171       -1.25164       -1.60006
N          0.25607       -2.26698        1.57995
H         -0.71994       -1.98263        1.29292
H          0.63385       -2.90053        0.87597
H          0.85464       -1.38956        1.53967
H          0.26507       -2.69851        2.49913
N          0.19368        2.18704        0.31454
H          0.72371        1.44772        0.82644
H          0.43578        1.97723       -0.66021
C          0.60100        3.54989        0.70383
H          0.04227        4.27829        0.11645
H          0.39162        3.69677        1.76304
H          1.66870        3.66442        0.51851
H         -0.81646        1.98075        0.45536
