33
1sa1msa1ma1dma_64.log	Energy: -1001154.6972493
S         -1.07998        1.37100       -0.37094
O         -1.08324        0.25788       -1.38952
O         -0.61207        0.85978        0.93025
O         -0.32415        2.54375       -0.84639
O         -2.57351        1.83499       -0.22643
H         -3.07397        1.06180        0.25017
S          1.11701       -2.00194        0.05569
O          0.96497       -2.17147        1.49021
O          2.00623       -0.90941       -0.39576
O         -0.24663       -1.91086       -0.67530
H         -0.57580       -0.91346       -0.96575
C          1.76256       -3.51101       -0.62997
H          2.72770       -3.69428       -0.15709
H          1.06231       -4.31266       -0.39577
H          1.87090       -3.38586       -1.70668
N         -3.51451       -0.28513        1.00089
H         -2.64174       -0.51551        1.47434
C         -3.88471       -1.34668        0.05462
H         -4.00196       -2.32658        0.53072
H         -4.82201       -1.07655       -0.43693
H         -3.10960       -1.41638       -0.71051
H         -4.22385       -0.16853        1.71730
N          2.11967        1.76844        0.18083
C          2.21552        2.02371        1.63481
C          3.28564        2.21248       -0.60750
H          1.98494        0.74473        0.03305
H          2.31473        3.09691        1.80455
H          1.30085        1.64821        2.09266
H          3.08509        1.49823        2.03245
H          3.42163        3.28723       -0.47840
H          4.17503        1.68056       -0.26673
H          3.10155        1.98714       -1.65776
H          1.24879        2.20879       -0.19587
