40
1sa1msa2eda_155.log	Energy: -1095285.7847826
S          0.91478        0.28171        0.87638
O          0.83178       -1.28174        0.52311
O         -0.25539        0.64014        1.67879
O          2.21520        0.34710        1.59837
O          0.96509        0.99605       -0.42432
H          3.16594       -0.70945        0.95876
H         -2.22072        0.66594       -0.94744
S         -2.65898       -1.72479       -0.28043
O         -3.45394       -2.82131       -0.81891
O         -3.29536       -0.37327       -0.40198
O         -1.26105       -1.65479       -0.84387
H         -0.01831       -1.46884       -0.01691
C         -2.45540       -1.99434        1.47358
H         -3.44914       -2.00695        1.92217
H         -1.96457       -2.95819        1.61420
H         -1.85156       -1.18236        1.88362
H          4.11885       -1.64344       -1.71504
H          2.61086       -0.76028       -1.33209
H          4.41375        0.80793       -2.13457
H          3.87061        1.15104       -0.49149
H          6.42448       -0.05072       -1.25258
H          6.10735        1.07429       -0.10937
H          3.29293       -2.30804        0.44340
H          4.70274       -1.38560        0.62679
C          3.65976       -0.89312       -1.06533
C          4.41614        0.42923       -1.10586
N          3.71937       -1.38996        0.33712
N          5.75521        0.23052       -0.54459
H         -1.73268        3.50011       -1.76413
H         -3.28218        2.60797       -1.85865
H         -3.26270        3.97749        0.13697
H         -3.23298        2.27209        0.59916
H         -1.57186        4.00107        1.64173
H         -0.98794        2.52420        1.25585
H         -1.46718        1.14542       -2.35409
H         -0.68715        1.44103       -0.93597
C         -2.34843        2.72503       -1.30252
C         -2.63578        3.08028        0.15145
N         -1.62449        1.43065       -1.38958
N         -1.40151        3.37086        0.86807
