41
1sa1msa1tma1eda_10.log	Energy: -1085219.4096579
S         -2.99223        0.11109       -0.51041
O         -3.27822        1.40126       -1.13399
O         -2.80159       -1.01111       -1.45374
O         -1.94219        0.15094        0.53219
O         -4.31982       -0.27409        0.37040
H         -5.08807       -0.16713       -0.20592
S          2.54518       -0.19482       -0.72044
O          2.90513        0.07384        0.69129
O          1.42108        0.67766       -1.18288
O          2.27950       -1.62476       -1.01242
C          3.95961        0.25606       -1.70996
H          4.17888        1.30993       -1.53607
H          4.79922       -0.36670       -1.40052
H          3.71457        0.08082       -2.75748
H         -1.38876       -3.17384        1.00072
H         -0.42065       -4.08534       -0.18372
H          0.67767       -3.96654        2.10093
H          1.66935       -3.29054        0.80435
H          0.64361       -1.89590        3.04854
H          1.69268       -1.35604        1.88285
H         -1.24541       -1.91790       -1.05130
H         -0.52783       -1.16334        0.19007
C         -0.44708       -3.19324        0.44668
C          0.75847       -3.13667        1.39004
N         -0.42997       -1.99356       -0.41799
N          0.81506       -1.83860        2.05439
H          0.47191       -1.90473       -0.91802
N          0.48613        2.36979        0.69272
C          1.72110        3.19059        0.70724
H          2.55622        2.54134        0.97429
H          1.87786        3.60618       -0.28860
H          1.60651        3.99530        1.43700
C         -0.69661        3.14700        0.24086
H         -0.48941        3.55520       -0.74872
H         -1.55771        2.48221        0.18345
H         -0.87619        3.95595        0.95297
C          0.26079        1.71682        2.00920
H         -0.63404        1.10000        1.93562
H          1.13069        1.09603        2.22456
H          0.14036        2.49496        2.76720
H          0.67400        1.61304       -0.01374
