32
1sa1msa1a1eda_206.log	Energy: -1011228.9479693
S         -0.30612       -0.57120        0.16367
O         -0.73543        0.05756       -1.09369
O          0.58765        0.32995        0.95572
O         -1.42397       -1.09100        0.97573
O          0.55167       -1.87093       -0.17723
H          1.39946       -1.59091       -0.60087
S          3.69994        0.07020       -0.24534
O          4.95826        0.55668       -0.76223
O          2.93138       -0.89216       -1.04486
O          2.78873        1.32516        0.06554
H          1.87320        1.00412        0.35223
C          3.93844       -0.65446        1.36439
H          4.51173       -1.57155        1.22498
H          4.48717        0.05702        1.98111
H          2.95652       -0.87090        1.78916
N         -1.39062        2.70715        0.16763
H         -1.41453        3.71915        0.10193
H         -1.02368        2.33094       -0.70597
H         -0.69673        2.45323        0.86909
H         -4.38462        1.22402       -1.27926
H         -3.04545        0.05773       -1.44088
H         -5.28828       -1.09010       -1.60723
H         -4.35543       -1.64667       -0.21529
H         -6.65916        0.15295       -0.12367
H         -6.34256       -1.16334        0.79126
H         -2.77884        1.62964        0.43751
H         -4.17098        0.86128        1.13653
C         -3.89969        0.35294       -0.82856
C         -4.89056       -0.78713       -0.63065
N         -3.37699        0.75718        0.49879
N         -5.91649       -0.36978        0.32825
H         -2.73569        0.00741        0.85044
