35
1sa1msa1ma1eda_46.log	Energy: -1035900.5655482
S          2.35788       -0.94248       -0.22034
O          1.90650       -1.97571       -1.15739
O          2.92959        0.26168       -0.83297
O          1.33734       -0.63771        0.82173
O          3.54522       -1.60854        0.67939
H          4.27951       -1.82120        0.08758
S         -2.95427        0.24896        0.08850
O         -2.68113        1.45434        0.89474
O         -3.10399       -1.00389        0.87489
O         -1.93377        0.07097       -1.00177
C         -4.51806        0.50829       -0.72685
H         -5.28052        0.62043        0.04433
H         -4.44419        1.41387       -1.32907
H         -4.72916       -0.35820       -1.35347
N         -0.77542       -2.28387        0.15717
H         -0.01637       -1.69074        0.55775
H         -1.68185       -1.98769        0.57974
C         -0.46274       -3.71928        0.30715
H         -1.25650       -4.31399       -0.14473
H          0.49018       -3.91386       -0.18421
H         -0.38845       -3.95129        1.36919
H         -0.82952       -1.99442       -0.82177
H          1.43074        2.04529       -1.47348
H          0.14140        3.27625       -1.42353
H          2.35210        4.13710       -0.61222
H          1.09423        4.25023        0.62536
H          3.02574        2.02945        0.52647
H          2.97613        3.23978        1.65627
H         -0.58077        1.10999       -0.55975
H          0.63458        1.14870        0.58757
C          0.82154        2.67269       -0.81936
C          1.71225        3.54311        0.05872
N          0.01630        1.74565        0.01123
N          2.42481        2.69911        1.00260
H         -0.65093        2.21239        0.63354
