36
1sa1msa1ma1tma_114.log	Energy: -1025801.4740377
S          0.86257        0.58256       -0.34981
O         -0.26231        0.63873       -1.30999
O          1.87233        1.62361       -0.51032
O          0.24295        0.84515        1.10130
O          1.46773       -0.78688       -0.30339
H         -0.56898        0.29429        1.20829
H          2.98142       -0.63374       -0.03958
S         -2.91468       -1.07621        0.09714
O         -4.13968       -0.30091        0.10453
O         -1.91660       -0.80289        1.14107
O         -2.21623       -1.01786       -1.31446
H         -1.42663       -0.37661       -1.32407
C         -3.32332       -2.80283        0.16712
H         -3.83941       -2.96801        1.11328
H         -3.97831       -3.03111       -0.67349
H         -2.39965       -3.37816        0.11807
N         -2.71883        2.64245       -0.52963
H         -3.47382        1.99059       -0.71608
C         -2.58839        2.85885        0.90718
H         -2.47730        1.94062        1.50424
H         -1.71749        3.49197        1.09914
H         -3.47134        3.39005        1.27646
H         -1.86965        2.23454       -0.90827
N          4.03146       -0.50431        0.15124
C          4.13924        0.37348        1.34399
H          3.63864        1.31488        1.11757
H          3.63496       -0.11060        2.18100
H          5.19405        0.53493        1.57886
C          4.59846       -1.84884        0.39521
H          4.09907       -2.29224        1.25712
H          4.42313       -2.47072       -0.48309
H          5.67084       -1.76446        0.58655
C          4.61090        0.13797       -1.05464
H          4.45789       -0.52235       -1.90890
H          4.08248        1.07638       -1.22300
H          5.67859        0.30761       -0.89558
