35
1sa1msa1ma1eda_80.log	Energy: -1035889.3984023
S         -0.42121        1.54788       -0.56684
O         -0.44746        0.66671       -1.73874
O         -0.12959        0.75837        0.69456
O          0.52500        2.68418       -0.64491
O         -1.83909        2.17839       -0.37660
H         -2.58338        1.43995       -0.52851
S          1.82851       -1.93448       -0.09238
O          2.30192       -3.23913        0.31597
O          2.71083       -0.77654        0.15011
O          0.44305       -1.67490        0.60050
H          0.18499       -0.67018        0.60065
C          1.43940       -1.94618       -1.82578
H          2.37964       -2.06783       -2.36476
H          0.77741       -2.79262       -2.00985
H          0.94811       -1.00086       -2.07060
N          2.42948        1.81388        1.03751
H          2.51472        0.82311        0.72697
H          1.77772        2.27804        0.34670
C          3.74423        2.47676        1.14273
H          3.60710        3.51028        1.46013
H          4.36892        1.94287        1.85861
H          4.21878        2.45700        0.16245
H          1.91908        1.79360        1.91913
H         -3.70868       -1.79680       -0.73230
H         -2.08032       -1.09580       -0.83168
H         -2.47568       -1.98887        1.42468
H         -2.29516       -0.23469        1.47645
H         -4.81637       -1.70159        1.73805
H         -4.20702       -0.53108        2.70191
H         -3.86295        0.34864       -1.74599
H         -4.45512        0.49399       -0.21073
C         -3.06670       -0.97891       -0.37519
C         -2.95430       -1.04158        1.14286
N         -3.61202        0.33384       -0.76220
N         -4.27769       -0.84183        1.74060
