36
1sa1msa1ma1tma_39.log	Energy: -1025815.0761776
S         -1.71440       -1.13530       -0.18609
O         -2.83832       -1.93546       -0.63384
O         -0.42090       -1.77256       -0.00040
O         -1.58676        0.03842       -1.22611
O         -2.07123       -0.42184        1.16135
H         -3.07177       -0.10804        1.11167
S          1.42491        1.79382       -0.07593
O          2.52749        1.57773       -1.03215
O          1.44403        0.79719        1.03667
O          0.08269        1.89183       -0.71545
H         -0.87263        0.72275       -0.97880
C          1.68017        3.38460        0.68720
H          2.65568        3.37571        1.17364
H          1.64706        4.14224       -0.09571
H          0.88602        3.54521        1.41624
N         -4.54820        0.26581        0.82249
H         -4.90991       -0.59079        0.40936
C         -4.60452        1.36806       -0.15168
H         -5.62319        1.58951       -0.48762
H         -4.17431        2.26405        0.30027
H         -3.99103        1.10077       -1.01402
H         -5.10840        0.47182        1.64355
N          2.62753       -1.45201        0.18747
C          3.99453       -0.92737        0.42903
H          4.09741        0.00635       -0.12561
H          4.11230       -0.73472        1.49570
H          4.72607       -1.66700        0.09534
C          2.34014       -2.66093        0.99519
H          2.48070       -2.41877        2.04921
H          1.30566       -2.95255        0.82137
H          3.02777       -3.45698        0.69945
C          2.39129       -1.67725       -1.26382
H          1.36433       -2.01482       -1.39358
H          2.54024       -0.72602       -1.77655
H          3.09988       -2.42876       -1.62075
H          1.97895       -0.67799        0.50333
