26
1sa1msa1dma_34.log	Energy: -940996.3881815
S         -1.35868       -1.49902        0.18219
O         -1.31008       -0.81422       -1.30493
O         -1.29623       -0.32918        1.11675
O         -2.59338       -2.24013        0.21057
O         -0.10981       -2.29676        0.27747
H          1.26394       -1.80200       -0.08359
S          2.20869        0.14395       -0.19032
O          3.51530        0.62869       -0.56422
O          2.19042       -1.41413       -0.30942
O          1.03957        0.68543       -0.92653
H         -0.41160       -0.45579       -1.44298
C          1.91279        0.44012        1.53961
H          2.68467       -0.08396        2.10348
H          1.99560        1.51611        1.70204
H          0.91377        0.06863        1.78472
N         -1.28680        2.01931       -0.04844
C         -2.35707        2.24670       -1.04535
C         -1.14284        3.09239        0.95596
H         -1.44120        1.08785        0.44774
H         -2.14601        3.15734       -1.60818
H         -2.39386        1.38186       -1.70723
H         -3.30879        2.34371       -0.52160
H         -0.88403        4.03035        0.46223
H         -2.08566        3.20344        1.49252
H         -0.35912        2.81162        1.65957
H         -0.38391        1.85383       -0.51830
