38
1sa1msa1dma1eda_234.log	Energy: -1060548.9539315
S          0.20984       -0.71576        0.88493
O          0.71745        0.68009        1.06358
O          1.09570       -1.73642        1.42119
O         -1.21135       -0.79616        1.28960
O          0.10800       -0.91908       -0.71640
H          1.00231       -0.74831       -1.09803
S          3.73228        0.19359       -0.59659
O          4.90058        0.78516       -1.20798
O          2.62007       -0.21822       -1.46621
O          3.18557        1.21546        0.47947
H          2.23113        1.00298        0.73710
C          4.20691       -1.21617        0.37720
H          4.60902       -1.95797       -0.31404
H          4.96986       -0.89287        1.08509
H          3.31848       -1.59667        0.88684
N         -2.25589        1.56372        0.32895
C         -2.19843        2.52737        1.44612
C         -1.50211        1.99346       -0.86949
H         -1.87241        0.65477        0.67951
H         -2.60738        3.48673        1.12377
H         -2.78218        2.13410        2.27875
H         -1.15766        2.63955        1.75327
H         -1.93709        2.91893       -1.25184
H         -0.45600        2.13740       -0.59956
H         -1.56705        1.20902       -1.62349
H         -3.25409        1.34561        0.04751
H         -5.50344       -0.91880       -1.75588
H         -4.24508        0.12427       -2.43845
H         -3.42145       -2.17526       -1.82721
H         -2.52495       -0.89862       -1.03432
H         -4.26069       -2.79710        0.23707
H         -2.96908       -1.95614        0.82277
H         -5.57298        1.21241       -0.67905
H         -5.00990        0.08346        0.38007
C         -4.57205       -0.38272       -1.52435
C         -3.50506       -1.38401       -1.07116
N         -4.78160        0.61530       -0.46179
N         -3.81492       -1.88858        0.26437
