24
1sa1msa2a_38.log	Energy: -927171.9107545
S         -1.72984        0.10229        0.01019
O         -1.93846       -1.16248        0.70371
O         -0.55035        0.13144       -0.91273
O         -2.96323        0.34741       -0.95801
O         -1.65322        1.29287        0.90729
H         -3.76086       -0.18636       -0.62045
H         -0.45535        2.16428        0.46873
S          2.60567       -0.37392        0.12658
O          2.47434       -0.65772        1.54238
O          2.56443        1.04987       -0.26729
O          1.58008       -1.18155       -0.73785
H          0.65790       -0.71605       -0.77942
C          4.12097       -1.06263       -0.48845
H          4.93338       -0.57860        0.05422
H          4.10849       -2.13376       -0.28742
H          4.18848       -0.86232       -1.55694
N          0.37320        2.69586        0.02612
H          1.20408        2.06534       -0.01304
H          0.59179        3.54373        0.54144
H          0.11100        2.92313       -0.93048
N         -4.85472       -1.21782        0.08904
H         -5.51668       -0.79708        0.73213
H         -4.17970       -1.75583        0.63016
H         -5.35973       -1.84964       -0.52267
