36
1sa1msa2dma_56.log	Energy: -1025818.1691530
S          0.83583       -1.49741       -0.11324
O          0.08887       -0.75989        0.97433
O          2.01632       -2.18606        0.38813
O         -0.12576       -2.32744       -0.87678
O          1.30773       -0.37194       -1.12803
H          2.20570        0.07588       -0.78135
S         -1.33946        2.19775        0.02388
O         -1.76586        3.51800        0.43260
O         -2.36516        1.14612       -0.09257
O         -0.21319        1.71539        1.00307
H         -0.06990        0.68535        0.97566
C         -0.51348        2.29934       -1.54816
H         -1.26368        2.56893       -2.29221
H          0.24716        3.07694       -1.47357
H         -0.06062        1.32818       -1.75966
N         -2.54715       -1.60500        0.04055
C         -3.65895       -1.87400       -0.89104
C         -2.72694       -2.16545        1.39670
H         -1.64010       -1.96598       -0.35989
H         -4.57979       -1.44745       -0.49035
H         -3.42962       -1.41127       -1.85067
H         -3.77082       -2.95159       -1.01932
H         -3.61595       -1.72830        1.85422
H         -2.83704       -3.24834        1.32201
H         -1.83754       -1.91830        1.97603
H         -2.40526       -0.57939        0.10764
N          3.47515        0.68681       -0.22257
C          4.56595       -0.27530       -0.42666
C          3.23454        0.97798        1.19785
H          3.69470        1.55283       -0.70696
H          4.26631       -1.22936        0.01256
H          4.72172       -0.42360       -1.49745
H          5.50391        0.06293        0.03313
H          2.93029        0.05301        1.69356
H          4.13114        1.37141        1.69418
H          2.42107        1.70118        1.28811
