27
1sa1msa1a1ma_49.log	Energy: -951833.7242260
S          2.09823       -0.96830        0.01282
O          2.20220       -2.40277       -0.18459
O          0.83359       -0.37193       -0.53273
O          2.37243       -0.43767        1.35694
O          3.27098       -0.28356       -0.89150
H          3.42423       -0.86068       -1.65149
S         -2.37892       -0.30434       -0.08110
O         -2.34430        0.94012       -0.84339
O         -2.10940       -0.19059        1.35894
O         -1.44859       -1.38528       -0.72665
H         -0.46338       -1.07612       -0.68073
C         -3.95132       -1.09360       -0.29802
H         -4.70109       -0.42207        0.12096
H         -4.11431       -1.24073       -1.36516
H         -3.93582       -2.04351        0.23527
N          0.28567        1.23874        1.99978
H         -0.56993        0.66413        1.95005
H          1.11489        0.61893        1.86212
H          0.23505        1.93627        1.17447
H          0.33947        1.71594        2.89433
N          0.06729        2.79204       -0.25864
H         -0.55779        2.17233       -0.77458
C          1.34799        2.94627       -0.96312
H          1.23899        3.39132       -1.95917
H          2.01459        3.57911       -0.37114
H          1.81249        1.96467       -1.06929
H         -0.41250        3.68465       -0.19047
