27
1sa1msa1a1ma_36.log	Energy: -951834.3113113
S         -1.85789        0.25625        0.18793
O         -0.56267        0.35112        0.93940
O         -3.04564        0.21791        1.03320
O         -1.87880        1.32851       -0.84467
O         -1.74870       -1.12916       -0.57833
H         -0.43391        2.01160       -0.92613
H         -2.65110       -1.60020       -0.56517
S          2.41669       -0.77222       -0.11877
O          2.51988        0.70136       -0.13238
O          2.17892       -1.41629       -1.39654
O          1.38293       -1.21076        0.96981
H          0.52011       -0.63336        0.94613
C          3.90596       -1.41539        0.60275
H          4.06381       -0.93384        1.56693
H          3.78642       -2.49279        0.71485
H          4.71716       -1.18749       -0.08902
N         -4.17861       -2.18748       -0.32200
H         -4.82404       -2.11485       -1.10088
H         -4.45483       -1.51591        0.39236
H         -4.24651       -3.12200        0.06586
N          0.51089        2.48491       -0.79807
H          1.22687        1.74385       -0.65525
C          0.45968        3.35296        0.40190
H          1.43291        3.81687        0.56184
H         -0.30921        4.11290        0.26403
H          0.20026        2.71552        1.24646
H          0.74387        3.00617       -1.63995
