41
1sa1msa1tma1eda_18.log	Energy: -1085220.1272212
S         -2.59945       -1.19815        0.00419
O         -3.33935        0.01322       -0.37546
O         -2.53313       -2.24249       -1.01826
O         -1.28766       -0.89663        0.63475
O         -3.41048       -1.84841        1.27115
H         -4.24276       -2.20246        0.93079
S          2.67709        1.15029        0.16945
O          3.38009        0.21933        1.06883
O          1.95675        2.25614        0.84932
O          1.76660        0.42843       -0.78495
C          3.91865        1.93084       -0.84870
H          3.41972        2.59776       -1.55188
H          4.58507        2.49235       -0.19355
H          4.46837        1.15256       -1.37874
H         -2.54779        1.73504        1.20346
H         -1.42487        2.98101        1.80194
H         -3.36464        3.83898        0.36040
H         -1.76237        4.33252       -0.20939
H         -3.19059        1.99980       -1.30624
H         -2.90318        3.43688       -2.08515
H         -0.83652        1.85348       -0.77203
H          0.25766        2.08302        0.49647
C         -1.80620        2.47971        0.91136
C         -2.42600        3.47048       -0.07633
N         -0.69575        1.75349        0.24396
N         -2.57187        2.80695       -1.36622
H         -0.75659        0.73362        0.44237
N          1.65374       -2.21723       -0.22427
C          3.07064       -2.53059       -0.53366
H          3.25688       -2.30425       -1.58425
H          3.70216       -1.90459        0.09773
H          3.24993       -3.59109       -0.34286
C          1.35424       -2.44106        1.21551
H          2.01758       -1.80071        1.79850
H          0.31245       -2.17113        1.38897
H          1.52881       -3.49456        1.44729
C          0.71859       -2.95344       -1.11185
H         -0.30875       -2.66679       -0.88524
H          0.94814       -2.69926       -2.14745
H          0.85657       -4.02559       -0.95298
H          1.54767       -1.18582       -0.41176
