32
1sa1msa1a1eda_331.log	Energy: -1011206.8908734
S         -1.75357       -0.34543        0.24640
O         -0.66326       -0.15795        1.20409
O         -2.89034        0.54144        0.30047
O         -1.16249       -0.23146       -1.21312
O         -2.21068       -1.82993        0.36991
H         -0.25505       -0.63638       -1.25295
H         -3.21615       -1.92279        0.05445
S          2.31739       -1.26660       -0.15381
O          3.21957       -0.13733       -0.23386
O          1.24456       -1.37119       -1.15508
O          1.67093       -1.37895        1.28946
H          0.77494       -0.93751        1.30865
C          3.24985       -2.77422       -0.17915
H          3.76463       -2.80871       -1.13974
H          3.96722       -2.74138        0.64064
H          2.56029       -3.61058       -0.07263
N         -4.68765       -1.87017       -0.34627
H         -5.30161       -2.42602        0.24090
H         -4.86549       -2.11671       -1.31510
H         -4.92685       -0.88825       -0.22130
H         -1.08222        2.90933       -0.06766
H         -0.54705        3.52993       -1.61923
H          0.81885        1.60575       -1.03072
H          1.83283        3.05044       -0.98853
H          0.68774        1.75742        1.37454
H          2.26908        1.86628        0.97429
H          0.28403        4.64928        0.94769
H          0.54690        5.30030       -0.51907
C         -0.25132        3.42186       -0.56974
C          1.00025        2.54520       -0.48376
N         -0.11683        4.75044        0.01867
N          1.37700        2.34518        0.91407
