28
1sa1msa1eda_38.log	Energy: -975732.3382352
S         -1.04455        1.52154        0.05376
O         -2.46383        1.76813       -0.18401
O         -0.72208        0.73762        1.26436
O         -0.34990        0.96732       -1.13962
O         -0.34859        2.95165        0.37065
H         -0.68576        3.60097       -0.26206
S          2.71720       -0.55240       -0.11378
O          4.08605       -0.88985       -0.43289
O          1.74973       -1.63866        0.07962
O          2.19972        0.41315       -1.25428
H          1.21625        0.61247       -1.18631
C          2.67211        0.47045        1.34220
H          3.06919       -0.12684        2.16398
H          3.30185        1.34114        1.16041
H          1.63645        0.75848        1.53651
H         -2.27696       -3.40419        0.04432
H         -2.03560       -2.69813        1.66274
H         -4.28534       -2.06686        0.60994
H         -3.28235       -0.67708        1.03110
H         -4.03401       -1.48627       -1.60970
H         -3.37564       -0.05735       -1.08385
H         -0.09301       -2.30763        0.06172
H         -1.19204       -1.41712       -0.83906
C         -2.17079       -2.47163        0.60363
C         -3.36195       -1.53548        0.35647
N         -0.96478       -1.77370        0.10334
N         -3.32264       -1.07014       -1.02460
H         -0.75846       -0.92616        0.67508
