33
1sa1msa1a1tma_65.log	Energy: -1001151.5290732
S         -0.41532        0.88336       -0.36149
O         -0.55869        1.70866        0.83464
O          0.11390       -0.48729       -0.04889
O         -1.64115        0.78135       -1.18653
O          0.64002        1.55612       -1.34790
H          1.52707        1.54716       -0.91230
S          3.45637       -0.22918        0.26297
O          4.72992       -0.39345        0.92391
O          3.02540        1.11918       -0.12416
O          2.34946       -0.88405        1.18253
H          1.43443       -0.69027        0.80118
C          3.40287       -1.23969       -1.20375
H          4.14052       -0.84003       -1.90061
H          3.64984       -2.26356       -0.92359
H          2.39789       -1.17498       -1.62452
N         -3.65401        2.01776        0.75475
H         -3.62034        2.30707       -0.21921
H         -2.69231        2.11396        1.08321
H         -4.21434        2.70314        1.25178
N         -3.16184       -1.10648       -0.00914
C         -4.61780       -0.98413       -0.25547
H         -4.95660       -0.07072        0.23498
H         -4.78765       -0.91433       -1.33060
H         -5.12391       -1.86452        0.14727
C         -2.55307       -2.26113       -0.71648
H         -2.77026       -2.17208       -1.78113
H         -1.47422       -2.21607       -0.56209
H         -2.97255       -3.18762       -0.31838
C         -2.85290       -1.12935        1.44523
H         -1.76941       -1.14766        1.56601
H         -3.26260       -0.22033        1.88441
H         -3.30497       -2.02019        1.88742
H         -2.69205       -0.25316       -0.41289
