41
1sa1msa1tma1eda_150.log	Energy: -1085204.0173338
S          0.13412       -1.65084        0.21353
O         -0.52974       -0.73272        1.19289
O          1.24525       -2.39601        0.78708
O         -0.95516       -2.73652       -0.19618
O          0.49285       -0.90291       -1.02375
H         -1.79498       -2.27730       -0.43359
H          2.01960       -0.22329       -0.87697
S         -3.64912       -0.02108       -0.05344
O         -4.67437       -0.18039        0.95825
O         -3.16321       -1.22254       -0.74553
O         -2.41407        0.78194        0.50507
H         -1.64813        0.14797        0.78938
C         -4.22795        1.12238       -1.28492
H         -5.12109        0.68289       -1.72997
H         -4.46978        2.06272       -0.78984
H         -3.44595        1.25452       -2.03189
H          4.23194        0.51687        0.96361
H          2.79042       -0.47495        1.32448
H          4.80656       -1.91685        0.98493
H          3.53084       -2.22527       -0.19069
H          6.05533       -0.83124       -0.70203
H          5.30075       -1.96434       -1.60588
H          2.46225        1.32524       -0.39676
H          3.52888        0.35740       -1.38027
C          3.53959       -0.23392        0.56929
C          4.27711       -1.49103        0.12419
N          2.85575        0.35534       -0.60754
N          5.14669       -1.16124       -1.00864
N          1.45936        2.64695        0.08282
C          1.03455        2.31142        1.44507
H          0.60228        1.30702        1.46373
H          1.89835        2.33964        2.11656
H          0.27875        3.02020        1.81884
C          2.07021        3.97118        0.03229
H          2.92559        4.01053        0.71299
H          2.42258        4.17910       -0.98211
H          1.35925        4.76176        0.32315
C          0.32931        2.54802       -0.84564
H          0.66809        2.78840       -1.85805
H         -0.06153        1.52737       -0.84140
H         -0.48206        3.23985       -0.57063
