23
1sa1msa1ma_43.log	Energy: -916326.7769950
S          2.09695       -0.69984        0.07273
O          1.59058       -1.99495        0.51901
O          2.28975        0.32654        1.11633
O          3.61619       -0.96528       -0.45254
O          1.35372       -0.14846       -1.09624
H          3.64222       -1.85664       -0.82441
H          0.81358        1.58125       -0.74889
S         -2.42737       -0.22151       -0.07340
O         -1.67430        0.69047        0.79621
O         -3.08640        0.29893       -1.24749
O         -3.56819       -0.87669        0.87047
H         -3.36141       -0.67308        1.79409
C         -1.43151       -1.62026       -0.49952
H         -0.97370       -2.02524        0.40351
H         -2.07885       -2.34310       -0.99596
H         -0.64077       -1.25732       -1.16140
N          0.61587        2.16535        0.08592
H         -0.32290        1.87870        0.39893
C          0.76697        3.61638       -0.12363
H          0.59299        4.13662        0.81789
H          1.77884        3.82044       -0.47235
H          0.04572        3.95320       -0.86788
H          1.29623        1.74813        0.75863
