35
1sa1msa1ma1eda_120.log	Energy: -1035887.8551557
S         -1.36363        0.18942       -0.45213
O         -0.24166        0.62249       -1.30008
O         -1.24349       -1.23916       -0.02120
O         -1.56239        1.08408        0.71602
O         -2.65799        0.25434       -1.34294
H          1.35004        0.90415        1.14707
H         -3.39950       -0.31045       -0.88699
S          2.25345       -1.76858        0.12594
O          3.33244       -2.68013        0.43509
O          2.32188       -0.41838        0.71420
O          0.90996       -2.45974        0.55399
H          0.07401       -1.91179        0.33786
C          2.09613       -1.57282       -1.63354
H          3.02696       -1.12742       -1.98729
H          1.95466       -2.56241       -2.06803
H          1.24689       -0.91286       -1.83058
N         -4.32547       -1.24422       -0.00088
H         -5.12653       -1.66576       -0.45946
C         -4.72169       -0.53155        1.22252
H         -5.18704       -1.18415        1.96980
H         -3.83383       -0.06507        1.65465
H         -5.42350        0.26270        0.95944
H         -3.66569       -1.98750        0.21771
H          1.40148        3.84378        1.56322
H          2.80646        2.73469        1.55498
H          2.63763        3.86928       -0.59314
H          2.29821        2.15154       -0.81816
H          0.69420        4.11708       -1.69882
H          0.10707        2.63967       -1.27548
H          0.83352        1.71160        2.49942
H         -0.02982        1.84856        1.09433
C          1.82289        2.93776        1.12349
C          1.90175        3.08452       -0.39204
N          0.93828        1.79856        1.49027
N          0.60624        3.45933       -0.93579
