32
1sa1msa1a1eda_278.log	Energy: -1011226.8426248
S         -0.32216       -1.68246       -0.34212
O         -0.36319       -0.31872       -0.99510
O          0.03056       -1.54945        1.08376
O         -1.53939       -2.43580       -0.61933
O          0.86605       -2.45704       -1.06928
H          1.66716       -1.88715       -1.01479
S          2.75355        0.70479        0.07011
O          3.76549        1.72521       -0.09773
O          2.82756       -0.51251       -0.74442
O          1.33809        1.38117       -0.16051
H          0.66334        0.70060       -0.51814
C          2.68939        0.21308        1.77809
H          3.64617       -0.25813        2.00679
H          2.54815        1.10871        2.38301
H          1.86318       -0.49206        1.89082
N         -2.81059       -1.14133        1.91521
H         -3.19941       -0.88663        2.81712
H         -1.79397       -1.22224        2.00520
H         -3.13107       -2.07974        1.68935
H         -3.92600        1.96857       -1.32753
H         -4.52077        1.50243        0.28207
H         -3.11103        3.51528        0.49529
H         -2.28523        2.15049        1.24617
H         -1.53669        3.42233       -1.26488
H         -0.57268        2.75265       -0.10953
H         -3.48287       -0.33664       -1.14809
H         -2.00998        0.35244       -0.82912
C         -3.62797        1.60668       -0.34027
C         -2.60914        2.56140        0.28379
N         -2.99875        0.27499       -0.49325
N         -1.45809        2.66907       -0.59398
H         -2.96377       -0.23734        0.44377
