28
1sa1msa1eda_107.log	Energy: -975726.9288526
S          2.01206       -1.29747       -0.11746
O          0.72888       -0.63646        0.23080
O          2.00558       -2.17149       -1.27590
O          3.09707       -0.28241       -0.09789
O          2.27468       -2.25203        1.17822
H          2.53854        1.13756        0.38328
H          2.77432       -3.02081        0.87252
S         -2.59359       -0.28666       -0.02802
O         -2.35589        0.28161       -1.34759
O         -2.51395        0.62930        1.11097
O         -1.66933       -1.54114        0.22001
H         -0.69223       -1.26901        0.21862
C         -4.16802       -1.10638        0.00189
H         -4.92472       -0.33803       -0.15921
H         -4.18679       -1.84312       -0.80046
H         -4.29487       -1.57745        0.97598
H          1.84775        3.85534       -0.56879
H          2.18175        2.38415       -1.51983
H         -0.31472        3.05577       -1.43722
H          0.01949        1.41376       -0.89026
H         -0.72054        3.65678        0.79099
H         -1.10554        2.06390        0.92351
H          3.03233        2.63824        0.96208
H          1.44195        2.15813        1.25595
C          1.67095        2.77890       -0.64056
C          0.16776        2.46797       -0.64928
N          2.23516        2.13673        0.57980
N         -0.35697        2.71598        0.69152
