40
1sa1msa2eda_120.log	Energy: -1095294.5943253
S         -1.20046       -1.54233        0.94695
O         -1.02794       -0.38328        2.05953
O         -0.43012       -2.70747        1.39977
O         -2.66223       -1.68518        0.86930
O         -0.64619       -0.96081       -0.31171
H         -3.00754        0.14669        0.41400
H          1.09675       -1.24187       -0.32200
S          1.08978        1.82424        0.39873
O         -0.32647        2.26358        0.31324
O          1.67613        1.40560       -0.88941
O          1.29838        0.79802        1.47315
H         -0.13400        0.04002        1.96127
C          2.00090        3.26108        0.93801
H          1.89825        4.03202        0.17390
H          1.58146        3.59759        1.88616
H          3.04615        2.97569        1.06066
H         -1.65328        0.51770       -2.09334
H         -2.96126        1.08110       -3.15029
H         -2.80237        2.59297       -1.26607
H         -4.32285        1.65012       -1.13411
H         -1.77274        1.30584        0.33299
H         -3.24662        1.68759        0.97809
H         -3.45102       -1.13555       -2.95821
H         -3.05114       -1.24945       -1.37984
C         -2.74327        0.62372       -2.18045
C         -3.23226        1.59979       -1.11888
N         -3.46873       -0.63697       -2.07715
N         -2.80341        1.14910        0.23653
H          3.63917       -2.81438       -0.18728
H          2.28250       -3.11824       -1.30478
H          4.16558       -1.85738       -2.38416
H          2.65660       -0.94088       -2.39977
H          5.01272       -0.02654       -1.38474
H          3.52305        0.57077       -0.98887
H          1.49612       -2.28862        0.83922
H          2.38630       -0.88122        0.64326
C          2.85192       -2.34605       -0.78204
C          3.45073       -1.32739       -1.74740
N          1.93073       -1.65924        0.14980
N          4.10833       -0.26220       -0.99965
