32
1sa1msa1a1eda_20.log	Energy: -1011240.3108794
S         -2.47393       -0.97557       -0.04545
O         -2.12631       -1.78289        1.14680
O         -3.14523        0.28772        0.26658
O         -1.32743       -0.86377       -0.97362
O         -3.52757       -1.86219       -0.90716
H         -4.37351       -1.86040       -0.43887
S          2.90250       -0.16367       -0.15297
O          2.67975        1.14462       -0.82213
O          2.59408       -1.33722       -0.99430
O          2.18207       -0.23669        1.16264
C          4.64390       -0.21517        0.22452
H          5.19074       -0.14494       -0.71595
H          4.88054        0.62840        0.87287
H          4.85777       -1.15997        0.72438
N          0.54369       -2.36034        0.75258
H          1.12846       -1.55840        1.10445
H          0.90675       -3.24086        1.10539
H         -0.46598       -2.23569        0.99334
H          0.65653       -2.32415       -0.26483
H         -0.83891        1.09197        1.11721
H          0.69694        1.96365        1.18559
H         -1.42776        3.32041        1.77274
H         -0.39539        4.05783        0.53780
H         -2.76468        2.43220       -0.09873
H         -2.58898        4.05996       -0.34162
H         -0.41358        0.62134       -0.96920
H         -0.54425        2.22695       -1.33308
C         -0.26283        1.90377        0.67265
C         -1.05578        3.20813        0.74552
N         -0.01420        1.55784       -0.75919
N         -2.09467        3.17901       -0.27852
H          1.00777        1.53699       -0.96753
