41
1sa1msa1tma1eda_67.log	Energy: -1085216.8214198
S         -2.77394        0.93213       -0.21827
O         -2.08403        1.71849       -1.26288
O         -3.12119       -0.43634       -0.68343
O         -2.12928        0.95842        1.09059
O         -4.19717        1.67804        0.02245
H         -4.63785        1.76771       -0.83333
S          2.60952       -1.12180       -0.11971
O          2.27715       -2.52711        0.16563
O          2.70541       -0.24315        1.06448
O          1.68813       -0.52084       -1.15292
C          4.22387       -1.12927       -0.89003
H          4.93349       -1.55037       -0.17711
H          4.17380       -1.74250       -1.78999
H          4.49513       -0.10268       -1.13891
H         -0.03717        3.02339        0.98651
H          0.61716        1.42553        1.38530
H          2.21748        3.25816        2.02221
H          2.88444        2.11956        0.84916
H          1.93677        4.83814        0.25747
H          3.36146        4.14276       -0.14290
H         -0.36086        1.85688       -0.95289
H          1.11001        2.64693       -1.20745
C          0.76080        2.30995        0.76657
C          2.14326        2.91217        0.98357
N          0.63482        1.91874       -0.66130
N          2.37355        3.96294       -0.01243
H          1.09780        0.98830       -0.85058
N         -1.46501       -2.34196        0.26598
C         -2.31060       -3.44760        0.76868
H         -2.90941       -3.08371        1.60412
H         -2.96975       -3.78239       -0.03288
H         -1.66865       -4.26826        1.09539
C         -0.68351       -2.74417       -0.93578
H         -1.38522       -3.08510       -1.69803
H         -0.11203       -1.88457       -1.28838
H          0.02073       -3.52880       -0.65688
C         -0.59591       -1.78457        1.33795
H         -0.07365       -0.91715        0.94144
H         -1.22854       -1.47178        2.16797
H          0.13752       -2.53526        1.63287
H         -2.11513       -1.57733       -0.04831
