35
1sa1msa1ma1eda_21.log	Energy: -1035901.2841846
S         -2.64072        0.27709       -0.26416
O         -1.75386        0.14423        0.91461
O         -2.12367        1.24773       -1.25187
O         -3.06666       -1.00201       -0.83260
O         -3.96577        0.97305        0.38207
H         -4.63326        1.04104       -0.31383
S          2.27275       -1.27851       -0.14328
O          2.49584        0.19021       -0.02230
O          1.23828       -1.59356       -1.16517
O          2.00205       -1.93953        1.15710
C          3.81289       -1.94845       -0.74430
H          4.58875       -1.72334       -0.01243
H          3.69294       -3.02564       -0.86043
H          4.03619       -1.48043       -1.70307
N         -0.69845       -2.39236        0.64813
H         -0.31697       -2.25984       -0.30412
H          0.15654       -2.50749        1.21383
C         -1.67332       -3.49587        0.74362
H         -1.99009       -3.60509        1.78078
H         -2.53006       -3.24174        0.12001
H         -1.20900       -4.42018        0.39992
H         -1.12555       -1.47502        0.89952
H         -0.50309        3.23665        0.64225
H          0.11128        1.76154        1.40214
H          1.54708        3.74959        1.99775
H          2.44658        2.53281        1.07769
H          1.47232        5.09142        0.04220
H          2.94862        4.40449       -0.12227
H         -0.43909        1.59058       -1.00173
H          0.87838        2.62907       -1.28072
C          0.34537        2.54836        0.68545
C          1.64421        3.27341        1.01379
N          0.48444        1.92214       -0.65214
N          1.95686        4.20757       -0.07079
H          1.17132        1.13725       -0.58076
