36
1sa1msa2dma_221.log	Energy: -1025797.2935068
S         -0.54494       -0.41111       -0.54143
O          0.27109        0.82164       -0.60773
O         -1.77957       -0.37546       -1.32011
O          0.31910       -1.57872       -1.20421
O         -0.78978       -0.82419        0.87754
H          1.23684       -1.55504       -0.83649
H         -2.18390       -1.42993        0.99277
S          3.54195       -0.05880        0.03929
O          4.35980        0.31258       -1.09683
O          2.75307       -1.29749       -0.05297
O          2.58779        1.12106        0.47490
H          1.66743        1.02012        0.06406
C          4.56071       -0.15916        1.48996
H          5.30337       -0.93524        1.30273
H          5.04314        0.80794        1.63053
H          3.93028       -0.41541        2.34044
N         -1.82533        3.11504       -0.09360
C         -3.06083        2.98104       -0.83828
C         -1.94819        2.67817        1.28152
H         -1.08879        2.58320       -0.54645
H         -3.81198        3.67207       -0.43657
H         -2.89154        3.24046       -1.88627
H         -3.48476        1.95954       -0.80875
H         -2.63177        3.34353        1.82294
H         -2.32886        1.64303        1.38633
H         -0.97319        2.72115        1.77291
N         -3.16901       -1.87868        0.97590
C         -3.15123       -2.95660       -0.04533
C         -4.17078       -0.81817        0.70443
H         -3.32848       -2.27998        1.89884
H         -2.91831       -2.49401       -1.00468
H         -2.36803       -3.66937        0.21267
H         -4.12359       -3.45108       -0.07672
H         -3.90573       -0.35590       -0.24678
H         -5.16883       -1.25818        0.66302
H         -4.11519       -0.06989        1.49522
