39
1sa1msa1dma1tma_56.log	Energy: -1050477.3690098
S         -0.42648        1.65831       -0.46925
O         -0.41922        0.93213        0.81311
O          0.47241        0.84792       -1.49322
O         -1.80003        1.74070       -1.03488
O          0.26341        2.97058       -0.40204
H         -2.59979        0.54257       -0.27124
H          1.75401        2.54458        0.12062
S          1.15763       -2.19225        0.00836
O          0.32338       -2.56492        1.16103
O          2.30430       -1.30991        0.32073
O          0.34464       -1.65761       -1.14389
H          0.39579       -0.16463       -1.35140
C          1.85677       -3.71155       -0.62792
H          2.46522       -4.15682        0.15996
H          1.03905       -4.37829       -0.90269
H          2.46742       -3.47276       -1.49903
N          2.71196        2.27799        0.49445
C          3.46149        1.52165       -0.54452
C          2.54978        1.52821        1.77146
H          3.17975        3.16514        0.67625
H          2.98267        0.54788       -0.65795
H          3.41999        2.08045       -1.47915
H          4.49356        1.39297       -0.21311
H          2.08878        0.56601        1.54219
H          3.53365        1.37769        2.21964
H          1.90466        2.10830        2.43057
N         -3.22111       -0.15336        0.22990
C         -3.44668        0.39893        1.58696
H         -2.47244        0.52225        2.05924
H         -3.93389        1.37047        1.49428
H         -4.07573       -0.28952        2.15616
C         -4.46909       -0.22659       -0.56092
H         -4.89286        0.77413       -0.65263
H         -4.23231       -0.61178       -1.55294
H         -5.17683       -0.89260       -0.06202
C         -2.51433       -1.46199        0.28326
H         -2.21009       -1.74211       -0.72536
H         -1.61241       -1.36861        0.88815
H         -3.19126       -2.20784        0.70747
