35
1sa1msa1ma1eda_159.log	Energy: -1035884.8669493
S         -0.87523       -0.52288        1.13156
O          0.56592       -0.83546        1.40016
O         -1.81203       -1.09175        2.08967
O         -1.01828        0.96258        0.98187
O         -1.14419       -1.15672       -0.28612
H          0.37465        1.64600        1.13679
H         -2.17491       -1.28150       -0.42938
S          3.09585       -0.36800       -0.64095
O          3.46177        0.43555        0.54035
O          2.43104        0.36186       -1.71275
O          2.28858       -1.62570       -0.19999
H          1.50072       -1.35964        0.43817
C          4.56103       -1.14668       -1.26782
H          5.03420       -1.69606       -0.45476
H          4.26852       -1.81448       -2.07776
H          5.21248       -0.35373       -1.63565
N          1.32645        2.13580        1.20451
H          1.38370        2.59074        2.11267
C          1.49571        3.09141        0.08624
H          2.45807        3.59546        0.17583
H          1.47071        2.52151       -0.84281
H          0.68225        3.81632        0.10646
H          2.06639        1.41061        1.15424
H         -5.41601       -0.27989        0.11414
H         -3.90878       -0.03122        1.02276
H         -4.37207        1.92739       -0.39201
H         -2.89953        1.10905       -0.91858
H         -5.49534        1.00835       -2.27486
H         -4.02354        1.34987       -2.90211
H         -4.01579       -2.22164       -0.05526
H         -4.01896       -1.46394       -1.52706
C         -4.32456       -0.17973        0.02271
C         -3.98778        1.01220       -0.86409
N         -3.71958       -1.38977       -0.55597
N         -4.50768        0.78464       -2.21545
