30
1sa1msa1a1dma_72.log	Energy: -976495.4250281
S         -1.91573        0.29537        0.31419
O         -2.77156       -0.84025        0.65032
O         -1.12340        0.81353        1.48032
O         -0.96838       -0.00810       -0.80473
O         -2.82592        1.47230       -0.17250
H         -0.53341       -1.52241       -0.63562
H         -2.19372        2.20577       -0.55184
S          2.05310        0.52186       -0.00174
O          1.65168        1.67901       -0.79603
O          1.99467       -0.80054       -0.62948
O          1.32377        0.49756        1.38095
H          0.27362        0.65641        1.36542
C          3.72243        0.78157        0.55662
H          3.76973        1.74404        1.06488
H          3.99572       -0.03098        1.22918
H          4.35745        0.77983       -0.32992
N         -1.04098        3.13993       -1.13001
H         -0.19064        2.57021       -1.11180
H         -0.86194        3.97519       -0.58190
H         -1.20024        3.42444       -2.09112
N         -0.54244       -2.56363       -0.40284
C          0.02475       -2.75891        0.95343
C          0.14600       -3.31967       -1.46901
H         -1.54243       -2.77610       -0.37403
H          1.05828       -2.41601        0.93596
H         -0.55679       -2.15837        1.65332
H         -0.03405       -3.81563        1.22070
H          1.17703       -2.96903       -1.51199
H          0.10919       -4.38815       -1.24850
H         -0.34763       -3.11505       -2.41910
