39
1sa1msa1dma1tma_59.log	Energy: -1050474.1718428
S          0.20737       -1.34523        0.41856
O          1.46360       -2.11753        0.42864
O         -0.98430       -2.13410        0.79071
O          0.31730       -0.27058        1.61572
O          0.00547       -0.56880       -0.82209
H          1.14367        0.25033        1.47362
H         -2.93486        0.04477       -0.29283
S          3.57485        0.59764       -0.12705
O          4.88855        1.19815       -0.09247
O          2.57972        1.02613        0.86655
O          3.76309       -0.96791       -0.03250
H          2.89056       -1.43387        0.15796
C          2.85193        0.82600       -1.73659
H          2.72654        1.90027       -1.87883
H          3.54155        0.41771       -2.47534
H          1.88583        0.31532       -1.75068
N         -3.05786       -0.99802       -0.52000
C         -2.88984       -1.19935       -1.97290
C         -4.35203       -1.45358        0.01681
H         -2.27706       -1.48993       -0.01441
H         -3.63284       -0.60628       -2.51097
H         -1.87866       -0.88619       -2.23374
H         -3.01912       -2.25681       -2.21091
H         -5.16425       -0.90664       -0.46720
H         -4.47203       -2.52309       -0.16425
H         -4.37181       -1.26725        1.09137
N         -2.79869        1.66947        0.17388
C         -4.02707        2.40992       -0.09956
H         -4.22471        2.41574       -1.17562
H         -4.87046        1.93215        0.40855
H         -3.96266        3.45433        0.24624
C         -2.53452        1.59864        1.61397
H         -3.37871        1.11726        2.11786
H         -1.63193        1.00943        1.79288
H         -2.39799        2.60092        2.05017
C         -1.65804        2.25841       -0.53349
H         -0.77047        1.64493       -0.36781
H         -1.86534        2.27612       -1.60756
H         -1.46488        3.28896       -0.19581
