38
1sa1msa1dma1eda_109.log	Energy: -1060557.6044194
S         -0.19502        1.83936        0.51705
O         -1.47947        2.11260        1.16192
O          0.68154        0.92045        1.50191
O         -0.33340        1.07095       -0.74815
O          0.69457        3.01490        0.34066
H         -1.68227       -0.05798       -0.80299
H          2.02229        2.38487       -0.31097
S          0.84925       -2.32533        0.09895
O          2.08004       -1.59483       -0.24593
O         -0.00405       -2.69030       -1.06034
O          0.03903       -1.62339        1.15867
H          0.42353       -0.03975        1.41846
C          1.35539       -3.86404        0.84823
H          1.95891       -3.63190        1.72592
H          0.46172       -4.42068        1.13058
H          1.93918       -4.41886        0.11337
N          2.91382        1.98001       -0.73491
C          2.57190        1.15993       -1.92919
C          3.65419        1.22283        0.30825
H          3.46082        2.79063       -1.02244
H          2.03472        0.27507       -1.58667
H          1.93449        1.75243       -2.58441
H          3.49442        0.86961       -2.43543
H          3.07153        0.33449        0.55275
H          4.63008        0.93367       -0.08597
H          3.76240        1.85669        1.18797
H         -4.09331       -0.04341        1.08490
H         -5.35616       -0.09136       -0.14495
H         -3.89592       -2.04399       -0.39318
H         -3.75605       -0.97072       -1.81148
H         -1.81134       -1.12234        0.43507
H         -1.54657       -1.69383       -1.04283
H         -4.65527        2.01930       -0.49405
H         -3.11377        1.76057       -0.00271
C         -4.28294        0.06231        0.00469
C         -3.56725       -1.06047       -0.74013
N         -3.89074        1.35768       -0.52589
N         -2.10379       -0.97674       -0.54034
