28
1sa1msa1eda_49.log	Energy: -975730.2431819
S         -2.16388       -1.20703        0.14124
O         -1.98521       -2.18368        1.20145
O         -2.71616        0.10472        0.45377
O         -0.90471       -1.03660       -0.69501
O         -3.23487       -1.84492       -0.90439
H         -3.13531       -2.80571       -0.87546
S          2.34471       -0.65712        0.02155
O          2.10113       -0.10991        1.34920
O          2.25894        0.30336       -1.09098
O          1.43258       -1.89870       -0.26714
H          0.44522       -1.62902       -0.38196
C          3.93076       -1.44739       -0.02958
H          4.67564       -0.67351        0.15714
H          3.95592       -2.20629        0.75184
H          4.06541       -1.88978       -1.01590
H         -1.32248        1.94012        0.95280
H          0.39285        1.57036        1.22172
H         -0.10099        4.02582        1.59152
H          1.05661        3.77372        0.28222
H         -1.78650        4.39567       -0.07542
H         -0.48875        5.18216       -0.68895
H         -0.68113        0.67221       -0.85884
H         -0.67451        2.29868       -1.40211
C         -0.30659        2.13608        0.60357
C          0.01212        3.62490        0.57633
N         -0.22737        1.61025       -0.78683
N         -0.84093        4.27060       -0.42315
H          0.75155        1.45030       -1.07043
