40
1sa1msa2eda_281.log	Energy: -1095270.3486144
S         -0.24918       -1.55513        0.80621
O          0.70446       -2.26504        1.65464
O         -0.90527       -0.39007        1.45293
O          0.35581       -1.16316       -0.50594
O         -1.40336       -2.60448        0.48642
H          1.91245       -1.43851       -0.30104
H         -2.16030       -2.12342        0.07571
S         -3.65187        0.39951       -0.45241
O         -4.82837        0.71464        0.33177
O         -3.30775       -1.01435       -0.65322
O         -2.38556        1.16705        0.09180
H         -1.78216        0.55031        0.64095
C         -3.80584        1.15528       -2.05355
H         -4.67976        0.71079       -2.53057
H         -3.94976        2.22626       -1.91188
H         -2.90051        0.94690       -2.62248
H          0.46284        2.67205       -0.24280
H          1.17864        1.10457       -0.60749
H          0.86232        1.29718        1.78637
H          2.60163        1.29099        1.43368
H          1.02822        3.65891        2.11223
H          2.33173        3.06355        2.88584
H          2.29166        3.04657       -1.72000
H          2.79956        3.51827       -0.23650
C          1.38292        2.07525       -0.14522
C          1.67826        1.87438        1.33500
N          2.53897        2.70771       -0.79604
N          1.91115        3.17710        1.97060
H          4.70937       -2.32875       -0.91106
H          3.27267       -2.47674       -1.95554
H          4.77068       -0.48403       -2.56433
H          3.11156       -0.03200       -2.16740
H          5.45502        0.54846       -0.59199
H          3.98380        1.33792       -0.68808
H          2.82206       -2.51174        0.56990
H          3.30891       -0.90392        0.49902
C          3.77853       -1.84719       -1.22149
C          4.04230       -0.42970       -1.74724
N          2.91086       -1.69438       -0.03371
N          4.45180        0.42263       -0.63882
