28
1sa1msa1eda_22.log	Energy: -975732.1994050
S         -1.41765       -1.52009       -0.02107
O         -2.21359       -0.87534        1.02292
O         -1.18291       -0.69371       -1.22096
O         -0.17760       -2.15785        0.49070
O         -2.31071       -2.73590       -0.61485
H         -2.53176       -3.32990        0.11553
S          2.41699        0.12969        0.03618
O          1.59504        0.66840        1.11945
O          2.32597        0.83760       -1.24246
O          2.14629       -1.39966       -0.15216
H          1.18414       -1.68003        0.09272
C          4.12034        0.08349        0.53158
H          4.44799        1.11650        0.65063
H          4.18919       -0.45894        1.47390
H          4.68943       -0.41459       -0.25313
H         -1.12398        3.76186       -0.65763
H         -1.82390        2.71349       -1.92091
H         -3.35575        3.05748        0.10845
H         -2.99553        1.36603       -0.25227
H         -2.31103        2.74589        2.11797
H         -2.07533        1.14986        1.73202
H          0.51462        2.05244       -1.25125
H         -0.08666        1.78103        0.27374
C         -1.47616        2.75301       -0.88655
C         -2.56021        2.30554        0.10299
N         -0.33403        1.82479       -0.72892
N         -1.96045        2.10908        1.41660
H         -0.61325        0.84758       -0.99447
