32
1sa1msa1a1eda_02.log	Energy: -1011245.4028426
S         -1.19241        1.77435        0.30956
O         -0.92903        0.99432       -0.97235
O         -0.36236        2.98393        0.31862
O         -2.60777        1.89885        0.59825
O         -0.63514        0.79442        1.46550
H          0.33782        0.64807        1.33821
S          2.47474       -0.78201        0.08346
O          1.58836       -1.97129        0.05431
O          1.94365        0.32788        0.92199
O          2.84886       -0.29379       -1.27359
C          3.98454       -1.32201        0.85781
H          3.74367       -1.67287        1.86132
H          4.40171       -2.12886        0.25522
H          4.66894       -0.47470        0.89809
N          1.47494        2.03543       -1.62013
H          2.15125        1.23774       -1.54410
H          1.46226        2.58994       -0.75728
H          1.65738        2.62725       -2.42432
H          0.50949        1.62331       -1.64448
H         -1.90347       -3.00094        0.87201
H         -1.62519       -1.33904        1.46586
H         -4.07214       -1.76705        1.06986
H         -3.43311       -0.46829        0.06531
H         -4.16810       -3.15061       -0.83178
H         -4.42831       -1.70591       -1.55192
H         -0.09415       -1.93853       -0.34512
H         -1.47088       -2.16250       -1.34193
C         -1.97930       -1.93784        0.62664
C         -3.39951       -1.54992        0.23109
N         -1.08516       -1.67590       -0.52875
N         -3.75957       -2.24007       -1.01095
H         -1.07269       -0.64650       -0.74954
