42
1sa1msa2tma_05.log	Energy: -1075142.1933219
S         -2.90592       -0.72965       -0.11681
O         -2.04644        0.04107       -1.06845
O         -2.83808       -2.17101       -0.34245
O         -2.72913       -0.25781        1.25932
O         -4.43884       -0.28008       -0.47158
H         -4.73712       -0.82139       -1.21432
S          3.03581        0.60598       -0.20749
O          3.33051       -0.49500       -1.14565
O          2.12521        0.12896        0.90189
O          2.54135        1.85154       -0.81627
C          4.57202        1.01541        0.60880
H          4.95904        0.11733        1.09054
H          5.26853        1.37283       -0.15022
H          4.37476        1.79451        1.34536
N          1.08080       -2.22475        0.21835
C          0.50021       -2.06875       -1.14226
H         -0.25788       -1.28578       -1.12237
H          1.30904       -1.78861       -1.81728
H          0.03551       -3.01118       -1.43892
C          2.18840       -3.20753        0.21867
H          2.62050       -3.25434        1.21924
H          1.79886       -4.18766       -0.06631
H          2.94233       -2.86328       -0.48990
C          0.05233       -2.53209        1.24197
H          0.54771       -2.65161        2.20646
H         -0.66244       -1.71150        1.29547
H         -0.47809       -3.44482        0.96562
H          1.50523       -1.28849        0.48299
N         -1.20537        2.30314        0.12247
C         -0.38922        3.09382       -0.83377
H          0.57661        2.60181       -0.97259
H         -0.92846        3.15714       -1.77991
H         -0.23794        4.09430       -0.42122
C         -2.53194        2.91908        0.36962
H         -3.04768        3.03348       -0.58426
H         -3.10541        2.25388        1.01579
H         -2.39025        3.89364        0.84224
C         -0.47721        2.04142        1.39189
H         -1.10908        1.40658        2.01332
H          0.46192        1.53063        1.16809
H         -0.28087        2.99791        1.88277
H         -1.41537        1.37518       -0.33142
