36
1sa1msa2dma_206.log	Energy: -1025798.6645334
S          2.01639       -0.47045       -0.51574
O          0.78778       -1.27216       -0.66058
O          3.17805       -0.94197       -1.26475
O          1.71357        0.97724       -1.13184
O          2.34848       -0.23475        0.93002
H          0.83961        1.29677       -0.79632
H          3.82011        0.02280        1.05873
S         -1.89512        0.80213       -0.04150
O         -2.72334        0.77963       -1.23432
O         -0.68527        1.64090       -0.07269
O         -1.48614       -0.66191        0.39120
H         -0.59107       -0.92368       -0.00310
C         -2.87948        1.26468        1.35382
H         -3.21798        2.28517        1.16883
H         -3.73154        0.57191        1.39914
H         -2.25563        1.21584        2.24579
N          4.89906        0.18368        1.04950
C          5.19838        1.18980       -0.00044
C          5.55578       -1.12693        0.82312
H          5.15787        0.55099        1.96382
H          4.85272        0.78375       -0.95149
H          4.64628        2.10293        0.22190
H          6.27159        1.38728       -0.02757
H          5.16646       -1.52648       -0.11398
H          6.63832       -0.99502        0.77471
H          5.28991       -1.79738        1.64051
N         -5.40721       -0.72360        0.73968
C         -4.79376       -1.88808        0.11081
C         -6.04600        0.15866       -0.22903
H         -6.08952       -1.02823        1.42560
H         -4.00909       -1.55269       -0.57277
H         -4.32696       -2.51720        0.87293
H         -5.50957       -2.49892       -0.46530
H         -5.28035        0.56050       -0.90003
H         -6.80832       -0.34725       -0.84575
H         -6.52065        0.99680        0.29001
