38
1sa1msa1dma1eda_160.log	Energy: -1060547.9644683
S         -1.21283       -0.04475        0.73635
O         -1.81568       -1.16394        1.44789
O         -0.29340       -0.48168       -0.37974
O         -2.36156        0.76113       -0.00789
O         -0.53683        0.97420        1.57044
H         -3.07185        0.09630       -0.37488
H          0.79744        1.58688        0.79991
S          2.95127       -1.31493        0.00723
O          3.13796       -1.15399        1.43930
O          3.06008       -0.08387       -0.80025
O          1.61961       -2.05485       -0.33268
H          0.78338       -1.42127       -0.28687
C          4.12028       -2.49291       -0.62290
H          3.98001       -3.43003       -0.08463
H          3.94525       -2.62131       -1.69032
H          5.11367       -2.08468       -0.43538
N         -4.13810       -0.97239       -0.83634
C         -4.92832       -1.32324        0.34896
C         -3.41874       -2.12337       -1.39353
H         -4.74962       -0.58201       -1.54751
H         -4.24041       -1.64629        1.13378
H         -5.46170       -0.43813        0.70326
H         -5.65240       -2.12421        0.14480
H         -2.71717       -2.48978       -0.64042
H         -4.09768       -2.93860       -1.67952
H         -2.84522       -1.80588       -2.26725
H          1.45840        2.84025       -1.80393
H          0.19438        1.62913       -1.46497
H         -0.77243        3.95300       -1.52102
H         -0.94369        3.19350        0.06339
H          0.92659        5.33173       -0.62915
H         -0.01310        5.16531        0.70005
H          2.19694        1.33090       -0.12460
H          1.88875        2.85326        0.58611
C          0.73083        2.49102       -1.06573
C         -0.21600        3.60627       -0.64120
N          1.48002        2.03309        0.13100
N          0.55175        4.65851        0.02985
