38
1sa1msa1dma1eda_144.log	Energy: -1060548.2800930
S         -0.77048        0.29332        0.18769
O         -0.68877        1.54727       -0.60008
O         -0.80441       -0.93656       -0.61820
O          0.32943        0.28170        1.20616
O         -2.11691        0.35708        1.00418
H         -2.73554       -0.45194        0.73315
S          3.05442       -1.41637       -0.02919
O          4.30900       -2.08516        0.23605
O          3.10464       -0.04787       -0.57561
O          2.21871       -1.40886        1.30276
H          1.41819       -0.77382        1.25538
C          2.06757       -2.39265       -1.13794
H          2.58866       -2.41868       -2.09565
H          1.98979       -3.39339       -0.71276
H          1.08357       -1.92394       -1.22602
N          1.84748        2.37646       -0.22522
C          2.37112        3.19952       -1.33225
C          2.00704        2.97252        1.11786
H          0.82971        2.15625       -0.38934
H          3.44031        3.36283       -1.18910
H          2.20283        2.67049       -2.27001
H          1.84618        4.15579       -1.34992
H          3.06839        3.12159        1.32314
H          1.48195        3.92844        1.14894
H          1.56971        2.28340        1.83983
H          2.31242        1.44771       -0.24563
H         -5.84331       -0.46939        0.95233
H         -6.52783       -0.18552       -0.65069
H         -5.28464       -2.16065       -0.91735
H         -4.24233       -0.89225       -1.59450
H         -3.93433       -2.17248        1.02874
H         -2.87072       -2.15505       -0.22541
H         -5.58781        1.84948        0.15466
H         -4.08929        1.19377        0.26331
C         -5.58903       -0.18892       -0.08661
C         -4.68956       -1.27199       -0.67201
N         -4.98179        1.12833       -0.21812
N         -3.59076       -1.61560        0.25114
