40
1sa1msa2eda_280.log	Energy: -1095271.5913279
S         -0.34131       -1.26719        0.81366
O          0.80099       -2.21661        0.76441
O         -1.50290       -1.73188        1.54649
O          0.19727        0.00760        1.67239
O         -0.63504       -0.71576       -0.53498
H          1.03290        0.31324        1.25672
H         -0.57333        0.87876       -0.80140
S          3.36416       -0.22976       -0.32158
O          4.41320       -0.29101        0.67541
O          2.24972        0.70709       -0.05505
O          2.77963       -1.63699       -0.65930
H          1.95455       -1.89382       -0.07330
C          4.07256        0.19344       -1.89448
H          4.82816       -0.55532       -2.13175
H          3.28422        0.20158       -2.64606
H          4.53090        1.17675       -1.78513
H         -1.04786        3.84444       -0.83734
H         -2.28193        2.54740       -0.89377
H         -2.03563        3.50986        1.43067
H         -1.59517        1.80087        1.37720
H          0.22725        4.01965        1.74622
H          0.28943        2.48308        2.32645
H         -0.18907        1.96777       -1.99810
H          0.59054        2.04196       -0.51702
C         -1.31988        2.84816       -0.47647
C         -1.29380        2.79833        1.04716
N         -0.31055        1.88779       -0.99156
N          0.06638        3.04685        1.51534
H         -3.02248        0.29505        0.29090
H         -4.40277        1.20413       -0.33398
H         -5.12545       -0.91683        0.63200
H         -5.44771       -0.90753       -1.10986
H         -3.13685       -2.23969        0.12219
H         -4.41133       -2.96500       -0.61777
H         -2.54041       -0.40259       -1.90867
H         -3.76211        0.46855       -2.53390
C         -3.78052        0.31557       -0.50057
C         -4.64533       -0.94024       -0.36092
N         -3.08041        0.45232       -1.77947
N         -3.84007       -2.12873       -0.60585
