24
1sa1msa2a_03.log	Energy: -927182.5319735
S          2.71746        0.04391        0.05124
O          4.10338       -0.27665       -0.22286
O          1.75076       -0.21344       -1.05597
O          2.17588       -1.07117        1.13717
O          2.47676        1.36270        0.67219
H          2.79141       -1.10145        1.88145
H          0.98068        2.04915        0.08930
S         -2.52066        0.02706        0.13689
O         -2.17756        1.42688        0.51597
O         -2.00002       -0.98774        1.08207
O         -2.11926       -0.27054       -1.27103
H         -0.91504       -1.67955       -1.26733
C         -4.29814       -0.06207        0.20570
H         -4.60595        0.16924        1.22550
H         -4.70394        0.66588       -0.49670
H         -4.59872       -1.07382       -0.06685
N         -0.15960       -2.08062       -0.68148
H          0.03552       -3.05493       -0.88787
H         -0.52025       -1.95315        0.27818
H          0.68965       -1.47781       -0.81355
N          0.16996        2.15027       -0.56173
H          0.14781        3.07733       -0.97620
H         -0.75024        1.92722       -0.08646
H          0.33713        1.44092       -1.28169
