36
1sa1msa1ma1tma_88.log	Energy: -1025809.8607017
S         -0.44307       -1.55817        0.40070
O         -0.63095       -0.35926       -0.46964
O          0.43996       -1.22368        1.54986
O         -1.69003       -2.21296        0.77050
O          0.35407       -2.61302       -0.49828
H          1.17884       -2.17064       -0.80195
S          2.79859        0.30703       -0.43218
O          2.20083        1.46088       -1.08379
O          2.56767       -1.01736       -1.02125
O          2.42882        0.27570        1.09666
H          1.61565       -0.32915        1.28675
C          4.55276        0.55987       -0.31416
H          4.93338        0.62903       -1.33362
H          4.72753        1.49081        0.22469
H          4.99022       -0.28940        0.20913
N         -0.61245        2.55781        0.25555
H         -0.09063        1.89572       -0.31686
C         -0.25284        2.32998        1.65897
H          0.80946        2.49717        1.87837
H         -0.84877        2.98308        2.30574
H         -0.47575        1.29182        1.92104
H         -0.28856        3.47784       -0.02769
N         -3.14632        0.46444       -0.52133
C         -3.44570        0.73124        0.90799
H         -3.17617       -0.15624        1.48271
H         -2.84154        1.58326        1.21977
H         -4.51087        0.94926        1.01708
C         -3.34838        1.67055       -1.35773
H         -2.68959        2.44897       -0.96724
H         -3.07733        1.43354       -2.38738
H         -4.39856        1.96918       -1.30786
C         -3.88997       -0.71559       -1.02680
H         -3.60119       -0.89301       -2.06326
H         -3.61189       -1.57861       -0.42039
H         -4.96257       -0.51737       -0.96447
H         -2.11678        0.20845       -0.55249
