30
1sa1msa2ma_77.log	Energy: -976492.1255770
S         -1.77072       -1.35433        0.22263
O         -1.88274       -2.79955        0.20726
O         -1.77083       -0.71362        1.55077
O         -0.72468       -0.75931       -0.65563
O         -3.11975       -0.77904       -0.53839
H         -3.86326       -1.33686       -0.27457
S          2.50805       -0.25153       -0.05828
O          2.51113       -0.63503        1.34323
O          2.01698        1.10352       -0.35860
O          1.74163       -1.29915       -0.94670
H          0.73417       -1.19379       -0.83412
C          4.13253       -0.43902       -0.74557
H          4.78648        0.24153       -0.19987
H          4.44307       -1.47315       -0.59805
H          4.09485       -0.18386       -1.80387
N         -2.14325        2.16613       -1.02157
H         -2.67950        1.29940       -0.98917
C         -1.25795        2.15925       -2.19504
H         -1.79393        2.04893       -3.14486
H         -0.68521        3.09031       -2.22363
H         -0.55734        1.32786       -2.09524
H         -2.81117        2.92809       -1.07923
N         -0.39215        1.67143        1.10050
H         -0.77690        0.76935        1.44411
H          0.49659        1.47283        0.61423
C         -0.21182        2.65138        2.18570
H          0.16412        3.58692        1.77042
H         -1.17035        2.82595        2.67489
H          0.50257        2.26322        2.91187
H         -1.08410        1.99196        0.35891
