40
1sa1msa2eda_212.log	Energy: -1095278.9451364
S         -0.04029       -0.17545       -0.85766
O         -1.21382        0.12557       -1.67040
O          0.87040        0.99314       -0.66813
O         -0.37922       -0.80159        0.44879
O          0.78776       -1.25319       -1.69321
H         -2.05941       -0.68250        0.64769
H          1.68612       -1.34628       -1.29519
S          3.96084       -0.25888        0.23042
O          5.06375        0.33203       -0.50010
O          3.19093       -1.32765       -0.42176
O          2.96970        0.84710        0.75473
H          2.11742        0.89912        0.18990
C          4.56514       -0.89005        1.77803
H          5.29904       -1.66105        1.54188
H          5.03266       -0.06816        2.32003
H          3.72477       -1.30479        2.33330
H         -4.64083       -1.39032       -0.61925
H         -3.02893       -1.32818       -1.38001
H         -3.63360       -3.68792       -0.76559
H         -2.22542       -3.11223        0.13253
H         -4.92257       -3.45740        1.20577
H         -3.49045       -3.91937        1.84301
H         -3.33907        0.39958        0.33392
H         -3.50572       -0.90733        1.47383
C         -3.57110       -1.56093       -0.46215
C         -3.30536       -2.98462        0.01016
N         -3.10329       -0.61803        0.57945
N         -3.94949       -3.19069        1.31025
H         -3.38944        3.96765        0.78275
H         -3.41782        2.60310        1.91348
H         -1.14279        3.53216        1.75947
H         -1.16068        1.89836        1.10424
H         -0.79502        4.33721       -0.39759
H         -0.22288        2.81036       -0.67745
H         -4.47706        2.29210       -0.39820
H         -2.92911        2.17217       -0.92665
C         -3.04230        2.93695        0.93829
C         -1.51265        2.92062        0.92493
N         -3.53731        2.03424       -0.11376
N         -1.02796        3.35275       -0.37895
