40
1sa1msa2eda_11.log	Energy: -1095298.0570543
S         -2.35118       -1.69605       -0.01392
O         -3.41163       -0.89318       -0.61948
O         -1.58899       -2.52838       -0.97036
O         -1.45511       -0.95579        0.90367
O         -3.08080       -2.73939        1.00482
H         -3.75480       -3.21805        0.50388
S          2.26067        1.58297        0.08378
O          3.19970        0.72950        0.83056
O          1.42370        2.46677        0.94046
O          1.41219        0.81133       -0.87969
C          3.25228        2.67759       -0.91882
H          3.86477        3.28381       -0.25102
H          3.88127        2.06707       -1.56713
H          2.58725        3.30701       -1.51026
H          1.92252       -3.72475       -0.76757
H          2.18088       -2.49567       -2.02784
H          4.23585       -2.96806       -0.55224
H          3.74921       -1.26950       -0.62162
H          3.85179       -2.85516        1.68782
H          3.38621       -1.27214        1.52952
H          0.09828       -2.19236       -0.67070
H          1.10841       -1.95693        0.64793
C          2.14776       -2.67109       -0.95053
C          3.45319       -2.25979       -0.26168
N          1.04373       -1.87519       -0.37377
N          3.25150       -2.21806        1.18328
H          1.14583       -0.85794       -0.59445
H         -1.07940        3.16553       -0.77866
H         -1.18455        1.47679       -1.30124
H         -3.35852        2.72215       -1.67657
H         -3.53874        1.34834       -0.57876
H         -3.50105        4.17478        0.19526
H         -4.52264        2.98462        0.66405
H         -0.20398        2.00649        0.96478
H         -1.82438        2.28752        1.42197
C         -1.57755        2.20930       -0.59558
C         -3.09453        2.34203       -0.68158
N         -1.20842        1.78063        0.77613
N         -3.56123        3.18775        0.42035
H         -1.35456        0.75467        0.89251
