30
1sa1msa1a1dma_105.log	Energy: -976487.3251045
S          1.84053       -0.23886        0.20811
O          1.73585       -1.50339       -0.53521
O          0.77250       -0.01004        1.20003
O          3.18680       -0.30110        1.06240
O          1.97688        0.94567       -0.70104
H          3.89297       -0.74259        0.49716
H          0.71729        1.85906       -0.42436
S         -2.72200       -0.83053        0.04481
O         -3.54021       -0.78734        1.24419
O         -2.22132        0.41249       -0.52880
O         -3.62108       -1.51661       -1.12224
H         -4.47110       -1.76576       -0.73198
C         -1.40061       -1.99001        0.21791
H         -0.70327       -1.56375        0.94530
H         -1.82824       -2.93397        0.55490
H         -0.88879       -2.08784       -0.73988
N          4.74830       -1.64967       -0.68946
H          3.90895       -2.06130       -1.09512
H          5.36891       -2.39375       -0.39167
H          5.21619       -1.10596       -1.40623
N         -0.19616        2.35233       -0.17688
C         -0.61678        3.22501       -1.28816
C         -0.03300        3.03372        1.12379
H         -0.87394        1.58252       -0.07935
H          0.13689        3.99968       -1.43804
H         -0.70613        2.62035       -2.19046
H         -1.58037        3.68148       -1.05562
H          0.72964        3.80767        1.02397
H         -0.98216        3.48084        1.42530
H          0.28864        2.28508        1.84761
