38
1sa1msa1dma1eda_147.log	Energy: -1060550.6151185
S          1.23612        1.32373       -1.21546
O          1.68308        1.34908        0.21362
O         -0.19949        1.75337       -1.29523
O          2.11736        2.02183       -2.12624
O          1.15874       -0.21589       -1.61865
H          1.88461       -0.80162       -1.16687
S         -2.32901       -0.90141       -0.42397
O         -3.70571       -1.30704       -0.24346
O         -1.50762       -0.71287        0.79387
O         -2.31117        0.42557       -1.25217
H         -1.38631        0.89746       -1.29364
C         -1.47669       -2.06713       -1.45571
H         -2.06362       -2.19062       -2.36586
H         -0.48848       -1.65563       -1.66845
H         -1.40423       -3.00665       -0.90689
N         -0.48872        1.69562        1.73235
C         -1.22369        2.94479        1.43661
C         -0.17520        1.49409        3.16013
H         -1.02321        0.87583        1.38693
H         -0.63693        3.79277        1.79297
H         -1.34845        3.01395        0.35668
H         -2.19262        2.92228        1.93801
H          0.47485        2.30064        3.50214
H         -1.09952        1.48822        3.74014
H          0.33605        0.53817        3.27367
H          0.40464        1.65797        1.16285
H          3.56413       -2.46785        1.42175
H          3.46282       -0.72229        1.08813
H          1.72745       -1.40944        2.69120
H          1.04963       -0.76316        1.18426
H          1.00346       -3.55360        2.01236
H         -0.18957       -2.59583        1.41035
H          3.67327       -2.03160       -0.95260
H          2.24760       -2.78099       -0.59854
C          2.95471       -1.68104        0.95385
C          1.58402       -1.61040        1.61785
N          2.77916       -1.91874       -0.48558
N          0.79962       -2.81391        1.34921
