29
1sa1msa1tma_40.log	Energy: -965635.1378562
S          3.46856       -0.47340       -0.10454
O          4.68452       -0.94596       -0.70257
O          2.26112       -1.28091       -0.11754
O          3.71752       -0.18538        1.45814
O          3.16977        0.94868       -0.69073
H          4.60237        0.19066        1.57596
H          2.25231        1.25824       -0.42110
S         -0.45445        0.84425       -0.02978
O         -0.96948        0.71864       -1.37801
O          0.79022        1.61834        0.14918
O         -0.23815       -0.58804        0.63224
H          0.65653       -0.93569        0.38893
C         -1.69187        1.48102        1.05480
H         -1.91818        2.48845        0.70254
H         -2.56877        0.82124        0.95746
H         -1.28593        1.50078        2.06550
N         -4.07578       -0.46249        0.08088
C         -3.42261       -1.67947       -0.38169
H         -2.56701       -1.42079       -1.01017
H         -3.05687       -2.25166        0.47550
H         -4.10622       -2.32220       -0.96695
C         -5.20243       -0.76647        0.94680
H         -4.86405       -1.36104        1.80053
H         -5.64153        0.16095        1.32749
H         -5.99557       -1.33354        0.42401
C         -4.47956        0.37068       -1.04235
H         -4.93141        1.29649       -0.67161
H         -3.60092        0.62786       -1.64051
H         -5.21552       -0.13340       -1.69554
