41
1sa1msa1tma1eda_28.log	Energy: -1085221.4908558
S         -1.19569       -1.95680       -0.65331
O         -2.44878       -2.66491       -0.84103
O          0.00188       -2.45652       -1.33802
O         -1.49394       -0.47247       -1.31322
O         -0.90830       -1.62647        0.78260
H          0.86230       -1.51916        0.90367
S          0.96198        1.93253       -0.45625
O          1.86115        1.55248        0.67388
O         -0.34808        2.44959       -0.01619
O          0.84293        0.81393       -1.43801
H         -0.62796       -0.01072       -1.47708
C          1.78756        3.25987       -1.31343
H          2.74714        2.89014       -1.67525
H          1.15542        3.56837       -2.14630
H          1.92854        4.07961       -0.60872
H          4.20155       -1.44016       -0.66370
H          5.05689       -2.13225        0.70238
H          2.78739       -3.05059        0.64530
H          2.94222       -2.00763        2.07542
H          1.88833       -0.20535        0.72526
H          1.64159       -1.30465       -0.49156
H          3.92171        0.59740        0.61826
H          4.73850       -0.06608        1.88269
C          4.24985       -1.44384        0.43174
C          2.94155       -2.02223        0.98192
N          4.60297       -0.11011        0.87930
N          1.78576       -1.22202        0.52292
N         -2.86442        0.77414        0.77790
C         -2.15676        0.99703        2.06578
H         -1.71226        0.04907        2.36649
H         -1.37720        1.74000        1.89944
H         -2.88350        1.34169        2.80524
C         -3.42326        2.03265        0.22390
H         -2.60595        2.74083        0.09385
H         -3.88133        1.81290       -0.74094
H         -4.17385        2.41948        0.91667
C         -3.89999       -0.28659        0.89902
H         -4.32006       -0.48265       -0.08708
H         -3.42321       -1.19534        1.26413
H         -4.67317        0.05886        1.58868
H         -2.17261        0.42402        0.08162
