28
1sa1msa1eda_137.log	Energy: -975720.9269002
S         -0.99492        2.08046        0.03888
O         -2.08794        1.18421        0.52100
O         -0.16922        2.62286        1.11706
O         -0.27609        1.47234       -1.08942
O         -1.74961        3.36030       -0.63517
H         -1.97388        3.97162        0.07872
S          2.68235       -0.74316        0.09487
O          3.65372       -1.25006        1.04822
O          1.36913       -1.36752        0.01494
O          3.33829       -0.89412       -1.38359
H          4.24634       -1.21136       -1.27522
C          2.50311        1.00977        0.23308
H          1.99763        1.21681        1.17843
H          3.49893        1.45168        0.21062
H          1.86560        1.35330       -0.58464
H         -1.03386       -3.05299        0.38323
H         -1.25251       -1.71473        1.52617
H         -3.29435       -3.17747        1.47363
H         -3.64620       -1.53798        0.91491
H         -3.39477       -3.90594       -0.78384
H         -4.55127       -2.74825       -0.79032
H         -0.38973       -1.04764       -0.67364
H         -1.88542       -1.49900       -1.32765
C         -1.61923       -2.15541        0.59820
C         -3.11127       -2.45929        0.66429
N         -1.39215       -1.17942       -0.48998
N         -3.56222       -2.91445       -0.65149
H         -1.76677       -0.23230       -0.19794
