39
1sa1msa1dma1tma_111.log	Energy: -1050468.0645818
S          0.06555       -0.10319       -0.72547
O          0.66271        1.23258       -0.51354
O          0.18200       -0.98040        0.45587
O         -1.32531       -0.03210       -1.23550
O          0.85820       -0.79274       -1.92671
H          1.82170       -0.75949       -1.71170
S          3.87908        0.11403        0.20696
O          5.28972        0.39180        0.35070
O          3.40982       -0.54463       -1.01890
O          3.10163        1.47892        0.38981
H          2.16231        1.41267        0.03446
C          3.31902       -0.86106        1.58576
H          3.84235       -1.81659        1.53180
H          3.57789       -0.32989        2.50160
H          2.23988       -1.00089        1.48584
N         -3.67147        1.98879        0.53028
C         -3.73130        2.26366       -0.90537
C         -2.43503        2.49764        1.12352
H         -4.45857        2.44416        0.98266
H         -2.91525        1.73097       -1.40150
H         -4.68178        1.90461       -1.31353
H         -3.63565        3.33509       -1.14338
H         -1.57842        1.98725        0.67545
H         -2.29340        3.57868        0.96636
H         -2.43073        2.30331        2.20063
N         -2.94606       -1.46513        0.30663
C         -4.34718       -1.26875       -0.13190
H         -4.60809       -0.22842        0.06986
H         -4.41470       -1.47514       -1.20076
H         -4.99696       -1.94902        0.42391
C         -2.44671       -2.83359        0.02603
H         -2.55790       -3.03344       -1.04017
H         -1.39037       -2.86901        0.29434
H         -3.02583       -3.55359        0.60884
C         -2.75823       -1.08866        1.73055
H         -1.69257       -1.14454        1.95314
H         -3.11893       -0.06619        1.84786
H         -3.32988       -1.77653        2.35857
H         -2.34002       -0.81586       -0.27211
