38
1sa1msa1dma1eda_111.log	Energy: -1060556.3609152
S         -2.41111       -0.81328        0.63662
O         -1.40087        0.10929        1.16489
O         -1.71280       -2.18713        0.31866
O         -3.59102       -1.09428        1.40675
O         -2.85528       -0.25198       -0.76282
H         -2.03179        0.07646       -1.32101
S          1.85932       -1.43264       -0.25958
O          1.87172       -1.59436        1.19651
O          2.24336       -0.05205       -0.69478
O          0.57016       -1.84069       -0.90973
H         -0.79503       -2.06158       -0.07112
C          3.08733       -2.52447       -0.95029
H          4.05348       -2.26125       -0.51949
H          2.81377       -3.54587       -0.68498
H          3.09680       -2.39558       -2.03258
N          1.44030        1.77225        1.18217
C          2.47831        2.81786        1.13158
C          1.17888        1.23278        2.53605
H          0.55327        2.15667        0.75339
H          3.41783        2.41357        1.51110
H          2.61161        3.13258        0.09573
H          2.16935        3.66975        1.74032
H          2.09540        0.78732        2.92365
H          0.84505        2.04588        3.18408
H          0.40815        0.46802        2.45464
H          1.73466        0.99618        0.54421
H         -1.90667        2.86077       -2.00642
H         -0.40433        3.77424       -1.81671
H          0.11269        2.00532       -3.27750
H          0.85299        1.56491       -1.74321
H         -1.16957        0.18782       -3.16498
H         -0.17545       -0.34976       -1.97864
H         -1.42420        3.46738        0.29588
H         -1.42065        1.84382        0.16898
C         -0.89472        2.82426       -1.57737
C         -0.10760        1.70292       -2.24758
N         -0.91941        2.68771       -0.11469
N         -0.81578        0.40686       -2.23863
