30
1sa1msa1a1dma_88.log	Energy: -976491.7637676
S          2.02555       -0.87880       -0.23236
O          2.48537        0.05717        0.80899
O          1.65136       -2.21850        0.20472
O          1.00877       -0.23253       -1.11322
O          3.34569       -1.04771       -1.16184
H          3.22632       -1.83671       -1.70780
S         -2.41011        0.16600       -0.36825
O         -3.36367        0.98562       -1.08785
O         -1.53213        0.83983        0.60825
O         -1.51075       -0.60532       -1.40920
H         -0.51998       -0.52956       -1.22248
C         -3.24458       -1.14951        0.47026
H         -3.91037       -0.68694        1.20039
H         -3.81956       -1.69792       -0.27680
H         -2.49210       -1.78984        0.95266
N         -0.88090       -3.05610        1.74084
H         -1.02439       -4.04470        1.56099
H         -0.67360       -2.96133        2.72983
H         -0.04181       -2.77850        1.23189
N          0.82576        2.21402        0.58834
C          0.78037        3.07185        1.78907
C          1.10401        2.93094       -0.67519
H          1.53742        1.45657        0.71671
H         -0.00211        3.82238        1.66820
H          0.55892        2.44774        2.65463
H          1.74767        3.55846        1.92217
H          0.31535        3.66310       -0.85529
H          2.07043        3.43108       -0.59676
H          1.12908        2.19232       -1.47602
H         -0.07828        1.70505        0.49957
