39
1sa1msa1dma1tma_84.log	Energy: -1050469.9620198
S         -0.35084       -1.52364        0.28400
O         -0.52242       -0.48304       -0.76752
O          0.40199       -0.93561        1.44331
O         -1.56889       -2.20547        0.67966
O          0.59093       -2.63993       -0.35153
H          1.42448       -2.20797       -0.64669
S          3.18281        0.16009       -0.30360
O          2.88622        1.32340       -1.12411
O          2.86984       -1.16687       -0.84374
O          2.52520        0.31656        1.11641
H          1.65154       -0.25188        1.22873
C          4.90576        0.18783        0.12733
H          5.46582        0.10464       -0.80456
H          5.11891        1.13522        0.62184
H          5.11175       -0.65662        0.78399
N         -3.77301       -0.22352       -0.20962
C         -3.82759       -0.43880       -1.64995
C         -5.08313       -0.31195        0.41784
H         -3.16203       -0.93566        0.18833
H         -4.36821        0.38705       -2.13039
H         -2.80927       -0.46927       -2.04583
H         -4.33527       -1.37668       -1.92870
H         -5.72375        0.50114        0.05627
H         -5.60210       -1.26349        0.21460
H         -4.98184       -0.20456        1.50203
N         -1.08672        1.94189        0.17320
C          0.22035        2.64070        0.22475
H          0.86999        2.12492        0.93139
H          0.68744        2.60096       -0.75936
H          0.05920        3.67499        0.53774
C         -2.03518        2.58823       -0.76506
H         -1.57874        2.62198       -1.75490
H         -2.94162        1.98023       -0.78237
H         -2.24829        3.60176       -0.41645
C         -1.68410        1.76968        1.52212
H         -2.63434        1.24901        1.39437
H         -1.00578        1.16352        2.12412
H         -1.83133        2.75317        1.97512
H         -0.89964        0.96940       -0.20280
