35
1sa1msa1ma1eda_258.log	Energy: -1035881.4085125
S         -1.77613        0.54433       -0.29449
O         -1.19463        1.20277       -1.46913
O         -1.02987       -0.67089        0.14825
O         -1.94562        1.50344        0.83941
O         -3.21046        0.03980       -0.69797
H         -1.10724        2.80411        0.47902
H         -3.47035       -0.75563       -0.08659
S          2.48583       -1.32572        0.10537
O          2.05858       -1.17331        1.48849
O          3.47460       -0.39911       -0.42960
O          1.22724       -1.33472       -0.85210
H          0.35744       -1.05410       -0.40297
C          3.10121       -2.97696       -0.14359
H          4.02777       -3.06230        0.42504
H          2.35623       -3.68430        0.21964
H          3.29004       -3.11675       -1.20774
N         -3.61284       -2.05336        0.81642
H         -2.90858       -1.89251        1.53233
C         -3.23599       -3.20726       -0.01072
H         -3.15347       -4.14069        0.55767
H         -3.97926       -3.33897       -0.80026
H         -2.27432       -2.98934       -0.47908
H         -4.50272       -2.20249        1.28065
H          1.51767        4.21952        0.74077
H          0.62572        3.33925        2.02109
H          2.49664        1.97648        0.94753
H          0.92084        1.21994        0.83825
H          2.54243        1.73948       -1.25604
H          0.94014        1.50716       -1.41231
H         -0.80034        4.47775        0.30308
H         -0.18268        3.38465       -0.80041
C          0.87006        3.36687        0.95729
C          1.51478        2.06807        0.47769
N         -0.39668        3.55105        0.19318
N          1.63949        2.10555       -0.97771
