36
1sa1msa2dma_106.log	Energy: -1025812.3225029
S          1.37803        0.19310       -0.02824
O          1.80977       -0.59156       -1.18319
O          1.56472        1.64862       -0.14183
O         -0.07138       -0.07053        0.34935
O          2.16074       -0.32247        1.24329
H          3.15151       -0.51013        0.98635
S         -3.18716       -1.01083        0.09156
O         -3.28046        0.23092       -0.69292
O         -3.38461       -0.87866        1.52618
O         -1.84689       -1.75701       -0.24574
H         -1.03101       -1.17049       -0.02782
C         -4.33825       -2.18694       -0.57339
H         -4.13957       -2.30484       -1.63800
H         -4.20892       -3.12877       -0.04093
H         -5.33550       -1.77985       -0.40463
N         -1.43649        2.20483        0.01810
C         -1.12073        3.14461        1.11264
C         -1.15889        2.72381       -1.34030
H         -0.86160        1.32882        0.15832
H         -1.69514        4.06429        0.98824
H         -1.36950        2.66951        2.06163
H         -0.04998        3.34832        1.07578
H         -1.72818        3.64081       -1.50303
H         -0.08682        2.90461       -1.41926
H         -1.46024        1.96176       -2.05883
H         -2.40394        1.86390        0.05402
N          4.61897       -0.81639        0.50378
C          5.02646        0.26810       -0.39582
C          4.58929       -2.12198       -0.16309
H          5.25213       -0.85303        1.29726
H          4.29287        0.34132       -1.20231
H          5.02595        1.21380        0.15048
H          6.02129        0.09776       -0.83055
H          3.81559       -2.09414       -0.93401
H          5.55406       -2.37632       -0.62384
H          4.32313       -2.89282        0.56360
