32
1sa1msa1a1eda_06.log	Energy: -1011241.0768613
S          2.28233       -1.14826       -0.07722
O          1.79288       -2.33855       -0.80642
O          3.00075       -0.18053       -0.90666
O          1.23309       -0.55985        0.78521
O          3.34820       -1.70065        1.02425
H          4.11545       -2.04774        0.54910
S         -2.91615       -0.01117       -0.09608
O         -2.91753       -1.24277       -0.93501
O         -2.62812        1.22704       -0.86776
O         -2.01798       -0.15220        1.08012
C         -4.57900        0.17205        0.51860
H         -5.24637        0.27753       -0.33693
H         -4.83097       -0.71797        1.09546
H         -4.61294        1.06258        1.14631
N         -0.79434       -2.55515        0.16447
H         -1.01410       -3.43280        0.62581
H          0.12036       -2.61670       -0.33310
H         -1.58372       -2.25247       -0.45322
H         -0.71552       -1.79525        0.85630
H          0.02129        3.70081        0.20564
H         -0.02506        2.53658        1.55599
H          2.26506        3.67141        1.21664
H          2.30535        1.90587        1.17860
H          3.04358        3.62940       -0.91960
H          3.02393        1.97247       -0.91908
H          0.31713        0.77313        0.03599
H         -0.98875        1.65201       -0.57391
C          0.42363        2.75895        0.58642
C          1.95492        2.79333        0.64183
N          0.03369        1.69018       -0.36073
N          2.48608        2.81108       -0.71967
H          0.58085        1.84326       -1.21663
