24
1sa1msa2a_68.log	Energy: -927165.3895004
S          2.16854       -0.68213        0.02987
O          3.47726       -0.03154        0.14450
O          1.36795       -0.58435        1.28591
O          1.38561       -0.32296       -1.15799
O          2.44868       -2.27415       -0.16997
H          3.11827       -2.53958        0.47462
S         -2.72846       -0.01726       -0.17336
O         -2.14466        1.21527        0.34161
O         -3.52662        0.02155       -1.38434
O         -3.67916       -0.59012        1.01240
H         -4.55410       -0.76265        0.63557
C         -1.48254       -1.26689       -0.26606
H         -0.73058       -0.93315       -0.98731
H         -1.00758       -1.36294        0.71178
H         -1.95921       -2.19467       -0.58111
N          0.47011        1.97915        1.16857
H          0.82330        1.01720        1.40375
H          0.47994        2.58231        1.98534
H          1.10904        2.35745        0.39610
H         -0.49172        1.86477        0.82152
N          2.24135        2.56243       -0.88959
H          3.09523        2.10186       -0.57312
H          2.48619        3.45220       -1.31042
H          1.87264        1.94818       -1.61437
