36
1sa1msa1ma1tma_126.log	Energy: -1025794.4391231
S         -1.63164        0.02067       -0.02062
O         -0.74226       -0.20524        1.13377
O         -2.56254        1.15407        0.16166
O         -0.71718        0.47530       -1.24257
O         -2.35025       -1.21423       -0.43967
H          0.08089       -0.10651       -1.28587
H         -3.99619       -0.83844       -0.71421
S          2.21859       -1.66821       -0.02829
O          3.48414       -0.99837        0.18302
O          1.36917       -1.22526       -1.14315
O          1.36370       -1.67281        1.29770
H          0.52854       -1.10653        1.21765
C          2.51239       -3.40830       -0.23163
H          3.13567       -3.52542       -1.11855
H          3.03233       -3.77000        0.65531
H          1.55230       -3.90722       -0.35855
N         -4.76200       -0.13743       -0.54144
H         -4.15721        0.69636       -0.34373
C         -5.55820       -0.50664        0.65090
H         -6.27843        0.28073        0.87058
H         -6.07214       -1.45007        0.47000
H         -4.86689       -0.61777        1.48571
H         -5.32619        0.00560       -1.37525
N          2.20649        3.04164        0.17752
C          0.95505        3.75225       -0.02091
H          0.67917        4.27652        0.89965
H          1.07447        4.49808       -0.81387
H          0.12268        3.07889       -0.29826
C          2.62505        2.37333       -1.04226
H          2.76334        3.11303       -1.83777
H          3.57534        1.85855       -0.87712
H          1.89059        1.62398       -1.39140
C          2.09710        2.09896        1.27829
H          3.04307        1.56658        1.40728
H          1.87196        2.63725        2.20481
H          1.29726        1.35223        1.12110
