40
1sa1msa2eda_143.log	Energy: -1095288.1215149
S         -0.97041       -1.66633        0.49060
O          0.24263       -2.66830        0.44644
O         -2.16609       -2.47001        0.71977
O         -0.70313       -0.66995        1.56511
O         -1.00680       -0.96608       -0.83900
H          0.33938        0.56651        1.59780
H         -2.46881       -0.79662       -1.28984
S          3.03542       -0.22073       -0.42504
O          3.30835        0.78284        0.65905
O          2.17403        0.32430       -1.48405
O          2.55972       -1.50847        0.14787
H          1.10898       -2.18487        0.28557
C          4.62939       -0.57502       -1.14053
H          5.28005       -0.96226       -0.35663
H          4.48406       -1.31896       -1.92420
H          5.02910        0.35018       -1.55595
H         -5.28242       -0.10374       -0.50390
H         -4.10714       -1.10041        0.42100
H         -4.25751        1.39022        1.13294
H         -2.64243        0.78304        0.76832
H         -4.03789        2.81514       -0.65303
H         -2.44733        2.31039       -0.77624
H         -3.91898       -1.28746       -2.05875
H         -3.47672        0.34859       -2.03008
C         -4.22840       -0.25030       -0.25200
C         -3.61226        1.03102        0.32480
N         -3.49383       -0.54356       -1.51230
N         -3.42828        2.01335       -0.74230
H          1.62707        2.57613       -0.46175
H          0.43215        3.88303       -0.37738
H          1.10191        3.45043        1.83920
H         -0.54579        2.79259        1.68306
H          1.94592        1.14029        1.42026
H          1.07637        1.34769        2.85060
H         -0.26135        2.18956       -1.86071
H         -0.23115        1.03683       -0.75985
C          0.60307        2.82450       -0.15332
C          0.49261        2.68126        1.35837
N         -0.40558        2.03957       -0.86527
N          0.99000        1.36253        1.83632
