35
1sa1msa1ma1eda_241.log	Energy: -1035884.8512679
S          0.09643       -1.74106       -0.18171
O          0.40005       -0.90573       -1.38588
O         -0.16536       -0.89006        0.99349
O         -0.96484       -2.72918       -0.43936
O          1.39462       -2.61334        0.10255
H          2.15961       -1.99545        0.18061
S          3.01817        0.85054        0.12978
O          4.14618        1.73133       -0.07099
O          3.25204       -0.59480        0.23020
O          1.98045        1.11753       -1.03795
H          1.39116        0.31003       -1.19081
C          2.12150        1.35547        1.58078
H          2.78384        1.20175        2.43371
H          1.87480        2.41167        1.47171
H          1.22939        0.72980        1.65649
N         -3.23183       -1.26759        0.01339
H         -2.48764       -1.97877       -0.18381
H         -2.92366       -0.39506       -0.51829
C         -3.33408       -1.02255        1.47555
H         -3.93055       -0.12479        1.63551
H         -3.77726       -1.89498        1.95629
H         -2.32013       -0.87245        1.84652
H         -4.11428       -1.58594       -0.37972
H         -2.97108        3.46270       -0.88765
H         -2.57852        3.38599        0.82876
H         -0.79266        2.43570       -0.60284
H         -1.40922        1.27033        0.57201
H         -2.31594        1.33489       -2.21866
H         -1.19172        0.31502       -1.61318
H         -4.74995        2.64389        0.69795
H         -4.48403        1.67510       -0.57927
C         -2.83894        2.77198       -0.03852
C         -1.67121        1.83762       -0.32652
N         -4.06409        2.02779        0.27502
N         -2.02327        0.85947       -1.36824
