32
1sa1msa1a1eda_59.log	Energy: -1011238.2772279
S          2.50513       -0.69108       -0.26536
O          2.44143        0.34792       -1.30627
O          1.88118       -0.27519        1.01678
O          2.07035       -2.02326       -0.70134
O          4.07404       -0.81048        0.14656
H          4.58691       -0.93863       -0.66293
S         -2.65732       -0.43952       -0.00549
O         -1.42489       -0.58668       -0.85014
O         -3.03404        0.96217        0.21152
O         -2.51624       -1.24935        1.24110
C         -3.97722       -1.20820       -0.92779
H         -4.09814       -0.66870       -1.86738
H         -3.71348       -2.24943       -1.11305
H         -4.88594       -1.14204       -0.32894
N         -0.01495       -2.24287        1.23945
H         -1.01503       -1.90710        1.29917
H          0.64370       -1.45859        1.43167
H          0.16466       -3.02039        1.86756
H          0.21333       -2.50944        0.27593
H         -0.14887        3.74041       -0.84122
H         -1.63245        2.76680       -0.53033
H         -0.57347        3.41056        1.58600
H         -0.50599        1.67027        1.37666
H          1.66816        3.33635        1.79695
H          1.75958        1.76866        1.28680
H         -0.10146        1.87882       -2.27404
H          1.01017        1.51622       -1.10888
C         -0.54476        2.80228       -0.44624
C         -0.09964        2.61712        0.99997
N          0.00119        1.69320       -1.27857
N          1.35271        2.68013        1.09658
H         -0.51421        0.79448       -1.08411
