35
1sa1msa1ma1eda_186.log	Energy: -1035885.1544177
S          0.25827       -0.31930       -0.92868
O         -0.94398       -0.65568       -1.71666
O          1.45304       -0.03099       -1.72615
O         -0.03862        1.09909       -0.20705
O          0.50243       -1.28016        0.17622
H         -0.93335        1.05840        0.20920
H          1.72439       -0.63556        1.16031
S         -3.66983        0.10718        0.26202
O         -4.58102        0.98910       -0.43788
O         -2.47780        0.70507        0.88617
O         -3.22607       -1.10174       -0.64357
H         -2.31542       -0.94685       -1.07382
C         -4.55837       -0.77240        1.52349
H         -4.93157       -0.02743        2.22682
H         -5.38551       -1.30019        1.04896
H         -3.87418       -1.46565        2.01099
N          3.02916        1.93799       -0.05849
H          4.00600        1.95897       -0.33591
C          2.53465        3.26102        0.33350
H          2.66254        4.01935       -0.44740
H          1.46911        3.17679        0.55667
H          3.05596        3.59992        1.23333
H          2.50570        1.58449       -0.86103
H          4.60167       -0.56083        1.91651
H          3.49603       -1.85425        2.45207
H          4.73774       -2.53473        0.46101
H          3.00609       -2.45626        0.12107
H          4.81736       -1.32203       -1.42652
H          3.33784       -0.65518       -1.23959
H          2.30795        0.17142        2.50750
H          2.79843        0.69670        0.95539
C          3.70362       -1.12895        1.66003
C          3.89691       -1.84700        0.32771
N          2.56624       -0.17507        1.58642
N          4.19510       -0.90387       -0.74596
