26
1sa1msa1dma_45.log	Energy: -940992.4662285
S         -0.93246        1.33556        0.04845
O         -0.13038        2.40611        0.59272
O         -0.67490       -0.00002        0.73179
O         -2.38981        1.55413       -0.05552
O         -0.50596        1.06614       -1.48106
H          0.44147        0.79493       -1.48744
S          2.73528       -0.34640        0.03160
O          3.67282        0.63926        0.52251
O          1.96999       -0.04839       -1.18731
O          1.72919       -0.78760        1.16762
H          0.79402       -0.41473        1.01887
C          3.59862       -1.87820       -0.23097
H          4.35540       -1.68921       -0.99296
H          4.06717       -2.16828        0.70935
H          2.88566       -2.63004       -0.56665
N         -3.10704       -0.99536        0.12251
C         -4.14970       -1.55255        1.00381
C         -3.02295       -1.59509       -1.22816
H         -3.18750        0.04722        0.02117
H         -3.96949       -2.61812        1.15364
H         -4.11302       -1.03317        1.96125
H         -5.12707       -1.40551        0.54230
H         -2.80805       -2.66083       -1.13808
H         -3.97198       -1.44707       -1.74476
H         -2.22174       -1.09102       -1.77058
H         -2.16399       -1.02542        0.56148
