41
1sa1msa1tma1eda_143.log	Energy: -1085206.9981042
S          2.82525        0.20541        0.29725
O          3.22053        0.50948       -1.07519
O          1.74338        1.12214        0.79423
O          2.53949       -1.19881        0.59545
O          4.08950        0.53561        1.25914
H          4.38035        1.43849        1.07248
S         -1.42450        1.98431       -0.19274
O         -1.51401        1.79844        1.25192
O         -2.04762        0.95005       -1.02638
O          0.05243        2.20586       -0.64511
H          0.78169        1.73392       -0.04247
C         -2.13761        3.54974       -0.63516
H         -1.65595        4.32494       -0.04011
H         -1.97425        3.71326       -1.70004
H         -3.20316        3.49107       -0.41158
H         -2.65057       -0.48802        2.61840
H         -3.20473       -2.16291        2.75349
H         -0.80470       -2.01675        3.12391
H         -1.16346       -2.98073        1.68081
H         -0.46491       -0.12747        1.53258
H          0.64104       -1.30574        1.38063
H         -4.21754       -1.34007        0.85250
H         -2.86404       -0.65253        0.26970
C         -2.62580       -1.47439        2.12923
C         -1.18534       -1.96505        2.09442
N         -3.21190       -1.45655        0.78945
N         -0.35059       -1.10085        1.25121
N         -0.33391       -1.81429       -1.40876
C          0.47325       -3.03561       -1.16917
H          1.41066       -2.74062       -0.69405
H         -0.08898       -3.69949       -0.51060
H          0.66479       -3.53404       -2.12248
C         -1.67568       -2.13960       -1.94723
H         -2.23167       -2.70221       -1.19650
H         -2.20007       -1.20454       -2.14102
H         -1.55714       -2.71047       -2.87207
C          0.38319       -0.86262       -2.29418
H         -0.19215        0.06053       -2.34616
H          1.37545       -0.65843       -1.89257
H          0.47516       -1.31180       -3.28678
H         -0.45478       -1.37699       -0.42344
