38
1sa1msa1dma1eda_182.log	Energy: -1060548.9003045
S          2.43946       -0.99978       -0.31055
O          2.27276       -0.80090       -1.74965
O          3.17759        0.07307        0.37993
O          1.18809       -1.32438        0.42513
O          3.30250       -2.36403       -0.12808
H          4.01665       -2.35025       -0.77954
S         -2.18737       -1.44951        0.20756
O         -2.46128       -0.25949       -0.60354
O         -1.99569       -1.23617        1.63602
O         -0.99384       -2.26133       -0.41057
H         -0.07557       -1.90663       -0.11027
C         -3.49512       -2.62167       -0.05480
H         -3.57652       -2.81571       -1.12388
H         -3.25607       -3.53094        0.49563
H         -4.40889       -2.16501        0.32659
N          1.01255        1.63880        1.24670
C          0.19271        1.14510        2.37140
C          1.35176        3.07182        1.33581
H          1.87924        1.07807        1.16289
H         -0.72340        1.73449        2.41616
H         -0.04894        0.09738        2.19741
H          0.75474        1.25313        3.30143
H          0.42385        3.64116        1.26131
H          1.85723        3.27151        2.28284
H          2.01587        3.32624        0.50841
H          0.51785        1.47086        0.31013
H         -2.52411        2.30422       -1.82827
H         -2.00850        3.97240       -1.54837
H         -0.42735        2.65031       -2.94469
H          0.31740        3.36419       -1.50686
H         -0.67147        0.59981       -1.46812
H          0.87582        0.95549       -1.85457
H         -2.64820        3.25679        0.51773
H         -2.03014        1.76797        0.33945
C         -1.78398        2.92867       -1.30608
C         -0.39461        2.60264       -1.84712
N         -1.84881        2.75237        0.14907
N          0.05937        1.30024       -1.35246
