28
1sa1msa1eda_44.log	Energy: -975731.2466072
S         -1.02606       -1.64586       -0.01682
O         -1.78117       -1.11440        1.12075
O         -1.20596       -0.89055       -1.27172
O          0.39291       -1.93220        0.30660
O         -1.66543       -3.08543       -0.39800
H         -1.52770       -3.68225        0.35042
S          2.61864        0.59009        0.10167
O          3.73373        1.38667        0.56451
O          1.47564        1.26940       -0.51403
O          2.11429       -0.26941        1.33136
H          1.37639       -0.88661        1.04207
C          3.18204       -0.65010       -1.04457
H          3.51755       -0.13306       -1.94404
H          4.00628       -1.18969       -0.57837
H          2.34416       -1.31536       -1.26049
H         -2.43129        3.38854       -0.84923
H         -2.91273        2.04349       -1.91918
H         -4.20151        2.13833        0.31206
H         -3.38902        0.60077       -0.00521
H         -2.80911        2.39548        2.11947
H         -2.23127        0.86486        1.83303
H         -0.40845        2.27797       -1.49079
H         -0.76579        1.87838        0.07559
C         -2.47025        2.30147       -0.95541
C         -3.22228        1.65821        0.21858
N         -1.08145        1.79090       -0.90322
N         -2.41234        1.77724        1.42567
H         -1.04137        0.76436       -1.12740
