38
1sa1msa1dma1eda_311.log	Energy: -1060543.8011124
S          0.15629        1.81252       -0.03408
O          0.09453        1.03540        1.20389
O          1.52403        2.14637       -0.49283
O         -0.68240        1.24539       -1.11219
O         -0.49874        3.24414        0.35816
H         -0.21576        3.89289       -0.30072
S          3.31221       -0.82978        0.03463
O          4.53057       -1.59561       -0.09454
O          2.04468       -1.49766       -0.29584
O          3.47291        0.45946       -0.86041
H          2.68577        1.08003       -0.77841
C          3.16222       -0.18185        1.68457
H          3.10994       -1.03947        2.35680
H          4.05102        0.41387        1.89213
H          2.24834        0.41436        1.74536
N         -0.71643       -1.46395       -0.33617
C         -1.18782       -1.93304        0.98899
C         -1.16946       -2.28430       -1.47919
H         -1.00549       -0.48601       -0.50336
H         -0.75462       -2.91692        1.17768
H         -0.83772       -1.21710        1.73247
H         -2.28110       -1.98258        0.98673
H         -0.87258       -3.32098       -1.31656
H         -2.25256       -2.19094       -1.55771
H         -0.70120       -1.90029       -2.38539
H          0.31867       -1.42385       -0.32347
H         -5.83447       -0.02392        0.30121
H         -4.99791       -0.10729        1.85564
H         -4.06812        1.65822        0.41155
H         -2.85676        0.44334        0.80516
H         -4.29561        0.58465       -1.74532
H         -2.70207        0.83831       -1.47553
H         -5.25980       -2.30910        0.94548
H         -4.43861       -1.87981       -0.40699
C         -4.87966       -0.29547        0.78372
C         -3.78054        0.61027        0.24105
N         -4.52926       -1.70257        0.58915
N         -3.50980        0.30295       -1.16586
