39
1sa1msa1dma1tma_118.log	Energy: -1050467.2128444
S          0.18901       -1.13707       -0.44194
O         -0.95680       -2.01511       -0.12356
O          1.32602       -1.78911       -1.07290
O         -0.33991       -0.09483       -1.56879
O          0.56063       -0.27742        0.71938
H         -1.21403        0.25593       -1.27482
H          1.45306        0.97275        0.23289
S         -3.69183        0.04495        0.11262
O         -4.67984       -0.42413       -0.83723
O         -2.59045        0.87790       -0.40600
O         -3.08762       -1.13306        0.95933
H         -2.22624       -1.50216        0.54742
C         -4.50446        0.94941        1.40699
H         -4.98919        1.80733        0.94031
H         -5.24472        0.29105        1.86130
H         -3.75845        1.26502        2.13504
N          3.82510       -0.77826        0.39372
C          3.64333       -1.08626        1.80619
C          5.12309       -1.20357       -0.10800
H          3.08902       -1.24704       -0.13384
H          4.32348       -0.47430        2.41268
H          2.61335       -0.85702        2.09121
H          3.84105       -2.14370        2.04737
H          5.91784       -0.62771        0.38122
H          5.32856       -2.27283        0.06664
H          5.18544       -1.01744       -1.18438
N          1.85284        1.89671       -0.10465
C          2.44974        1.66182       -1.44502
H          3.25057        0.93279       -1.32306
H          1.67707        1.25971       -2.10047
H          2.83550        2.60826       -1.83219
C          0.70296        2.83004       -0.16752
H         -0.03145        2.43132       -0.86640
H          0.25206        2.90112        0.82241
H          1.05287        3.81104       -0.49730
C          2.87641        2.32330        0.87891
H          2.40500        2.41768        1.85801
H          3.64270        1.54590        0.90151
H          3.29337        3.28471        0.56907
