40
1sa1msa2eda_33.log	Energy: -1095297.3950506
S          3.02841       -0.02097       -0.47427
O          2.29912        0.03078        0.80278
O          2.70204       -1.22185       -1.27361
O          2.97172        1.23428       -1.24347
O          4.57684       -0.20263       -0.00992
H          5.12693       -0.21200       -0.80476
S         -2.51922        0.27052       -0.86919
O         -1.90023       -0.91664       -1.52158
O         -1.79014        1.53250       -1.17996
O         -2.74298        0.07467        0.58055
C         -4.12285        0.45108       -1.62827
H         -3.97720        0.60215       -2.69774
H         -4.69118       -0.45971       -1.43937
H         -4.61499        1.31359       -1.17866
H          0.94388       -2.28464        1.55692
H         -0.12438       -0.91872        1.22840
H         -1.32092       -2.67534        2.55937
H         -2.06799       -2.40420        0.98510
H         -0.41378       -4.71082        1.72555
H         -1.86753       -4.68608        0.97422
H          1.16521       -1.86765       -0.74284
H          0.12883       -3.20124       -0.58227
C          0.02806       -1.98261        1.04434
C         -1.17828       -2.80457        1.47893
N          0.23227       -2.19483       -0.41226
N         -0.98586       -4.19662        1.06426
H         -0.52392       -1.69731       -0.93903
H          1.11699        3.48678        1.52583
H          0.06391        4.17210        0.26273
H         -1.15964        3.69077        2.45157
H         -1.84698        2.89355        1.03162
H         -0.69119        1.60815        3.29417
H         -1.57978        0.97366        2.03641
H          1.42726        2.28270       -0.58417
H          0.83153        1.34480        0.61163
C          0.25383        3.29396        0.88392
C         -0.98368        2.90960        1.70317
N          0.59700        2.15118        0.00910
N         -0.80864        1.58624        2.29075
H         -0.22903        1.88098       -0.57300
