38
1sa1msa1dma1eda_65.log	Energy: -1060563.5639270
S         -2.45556       -0.88832        0.13792
O         -2.27885       -2.13153        0.89091
O         -3.02321        0.23940        0.88373
O         -1.23984       -0.51189       -0.63939
O         -3.50567       -1.22040       -1.06861
H         -4.31556       -1.56207       -0.66623
S          2.94735        0.47136       -0.17839
O          2.53787        1.52778       -1.12322
O          3.07178       -0.88332       -0.78130
O          2.06232        0.44086        1.03328
C          4.57882        0.89080        0.40665
H          5.24988        0.90606       -0.45242
H          4.53034        1.87403        0.87471
H          4.89191        0.13481        1.12667
N          0.80581       -2.28761       -0.11207
C          0.91100       -2.56482        1.33904
C          0.44249       -3.46369       -0.92788
H          0.07144       -1.56412       -0.26503
H          1.64883       -3.35399        1.49520
H          1.23988       -1.64617        1.82526
H         -0.07051       -2.86628        1.70640
H          1.21217       -4.22989       -0.82218
H         -0.52136       -3.84052       -0.58241
H          0.36518       -3.15638       -1.97080
H          1.70002       -1.85662       -0.44143
H         -1.47495        2.08671        1.56271
H         -0.26325        3.39245        1.52940
H         -2.51498        4.15044        0.76201
H         -1.28423        4.34981       -0.49076
H         -3.11115        2.04228       -0.40890
H         -3.12952        3.27286       -1.51605
H          0.64928        1.36275        0.60744
H         -0.63520        1.20457       -0.44279
C         -0.91013        2.76195        0.91569
C         -1.85844        3.60118        0.06905
N         -0.05745        1.90297        0.06105
N         -2.54506        2.74413       -0.88153
H          0.49245        2.41454       -0.63381
