39
1sa1msa1dma1tma_67.log	Energy: -1050475.2513222
S          1.01281       -0.55216       -0.92609
O          0.66414       -0.32976        0.52872
O          0.03490       -1.47063       -1.54157
O          1.21932        0.71559       -1.62686
O          2.37331       -1.35601       -0.90682
H          3.09594       -0.78290       -0.43477
S         -1.89639        1.99814        0.17638
O         -2.82867        2.87130        0.86157
O         -2.37356        0.69732       -0.30340
O         -0.67475        1.75731        1.15212
H         -0.12386        0.94514        0.87100
C         -1.16637        2.85775       -1.19603
H         -1.96157        3.03966       -1.91995
H         -0.76275        3.79813       -0.82035
H         -0.38062        2.22388       -1.61474
N          4.11290        0.10319        0.41595
C          3.86645       -0.22343        1.82317
C          3.88740        1.52294        0.12158
H          5.06842       -0.14132        0.17286
H          2.80555       -0.06223        2.03168
H          4.09235       -1.27822        1.99678
H          4.46699        0.39209        2.50740
H          2.83817        1.75851        0.31265
H          4.52172        2.17829        0.73471
H          4.07855        1.70943       -0.93655
N         -1.79392       -2.23833        0.29651
C         -1.07436       -3.53534        0.33628
H         -0.91404       -3.87735       -0.68524
H         -0.10660       -3.37610        0.81159
H         -1.66865       -4.25628        0.90204
C         -1.95057       -1.66149        1.65511
H         -0.95765       -1.50165        2.07346
H         -2.46407       -0.70669        1.56342
H         -2.52785       -2.35895        2.26680
C         -3.08950       -2.33965       -0.41940
H         -3.52373       -1.34233       -0.47754
H         -2.89953       -2.71699       -1.42438
H         -3.74534       -3.02210        0.12590
H         -1.18293       -1.61746       -0.28297
