35
1sa1msa1ma1eda_10.log	Energy: -1035901.8233784
S          2.88566        0.02364       -0.10550
O          2.68349       -1.02085       -1.13166
O          2.99187        1.38378       -0.62667
O          1.93050       -0.12474        1.02274
O          4.30657       -0.31828        0.61376
H          5.01312       -0.08270       -0.00268
S         -2.61723       -0.79617       -0.12659
O         -2.11394       -1.87092       -1.02669
O         -2.92981        0.47312       -0.79782
O         -1.68134       -0.60672        1.03499
C         -4.13900       -1.41648        0.56818
H         -4.84199       -1.57124       -0.25066
H         -3.93096       -2.35653        1.07914
H         -4.52222       -0.67323        1.26764
N          0.43869       -2.31424       -0.15702
H          0.38243       -1.64272        0.61706
H         -0.48133       -2.24104       -0.64886
C          0.70590       -3.67804        0.33841
H          0.74762       -4.36400       -0.50713
H          1.65949       -3.68492        0.86610
H         -0.09651       -3.97612        1.01283
H          1.21837       -1.96143       -0.74660
H          0.80669        2.60097       -0.70486
H         -0.37927        1.36648       -1.17742
H         -1.26998        3.67927       -1.58790
H         -2.24703        2.74732       -0.44779
H         -0.38600        4.90939        0.25340
H         -1.94855        4.72072        0.69909
H          0.73860        1.16708        1.09023
H         -0.30160        2.45524        1.52687
C         -0.18369        2.19234       -0.49221
C         -1.28199        3.24345       -0.58140
N         -0.15593        1.65892        0.89631
N         -1.09184        4.22126        0.49415
H         -0.89822        0.93560        1.03378
