35
1sa1msa1ma1eda_129.log	Energy: -1035887.4911939
S         -0.77453        0.55724        1.01284
O         -1.80985        0.57944        2.03563
O         -0.94850        1.59986       -0.04405
O          0.62916        0.63004        1.53321
O         -0.82996       -0.84908        0.28134
H         -1.82288       -1.21078        0.22406
S          2.99775       -1.11775       -0.29105
O          4.32019       -1.70138       -0.31791
O          2.80400        0.18057       -0.96303
O          2.55187       -0.99767        1.21093
H          1.73221       -0.40093        1.33953
C          1.81979       -2.25022       -0.98771
H          2.05308       -2.34987       -2.04834
H          1.93600       -3.20470       -0.47429
H          0.82184       -1.83522       -0.83021
N          1.55177        2.52062       -0.25334
H          0.52414        2.26671       -0.29936
H          1.73738        2.66555        0.73885
C          1.92505        3.67521       -1.09159
H          2.99172        3.87438       -0.98842
H          1.70018        3.43887       -2.13108
H          1.35111        4.54951       -0.78451
H          2.06482        1.65424       -0.51724
H         -5.25836       -1.12873        0.41554
H         -4.01033       -0.19363        1.28024
H         -4.90429        1.09899       -0.61938
H         -3.18976        0.74516       -0.83588
H         -5.40135       -0.54337       -2.25569
H         -4.03065        0.11041       -2.86084
H         -3.35692       -2.51279        0.79115
H         -3.39428       -2.13595       -0.81617
C         -4.24729       -0.70282        0.34345
C         -4.18483        0.29069       -0.81035
N         -3.24414       -1.75937        0.11982
N         -4.41148       -0.40855       -2.07909
