40
1sa1msa2eda_307.log	Energy: -1095265.4253508
S         -1.11200       -0.67084       -0.88421
O         -2.07605       -1.71050       -1.20869
O          0.19651       -0.75818       -1.55856
O         -1.68839        0.71165       -1.01210
O         -0.84044       -0.86085        0.69175
H         -3.21744        0.70623       -0.75662
H         -0.15116       -0.20868        0.96292
S          1.78233        1.84661        0.13337
O          3.01390        2.45957        0.58009
O          0.98166        1.10383        1.11647
O          2.13947        0.90415       -1.07810
H          1.40397        0.24347       -1.27254
C          0.71945        3.06751       -0.60121
H          0.45520        3.77924        0.18180
H          1.27163        3.55930       -1.40197
H         -0.16648        2.55063       -0.97766
H          2.15482       -1.19113        0.79505
H          2.25515       -2.91798        1.14195
H          4.00717       -1.71463        2.31747
H          4.72278       -2.79347        1.10089
H          4.38426        0.10495        0.73086
H          5.79188       -0.72170        0.85251
H          1.98245       -2.38011       -1.25731
H          3.50545       -1.76655       -1.23351
C          2.75638       -2.09776        0.61451
C          4.13166       -1.88094        1.23497
N          2.88367       -2.44088       -0.79507
N          4.82745       -0.79157        0.55106
H         -5.84709       -0.62273       -0.13654
H         -4.34942       -1.38293       -0.77379
H         -4.67040       -1.75912        1.72319
H         -3.16040       -0.95211        1.30421
H         -5.47752        0.27471        2.57818
H         -3.88252        0.53288        2.83609
H         -4.76731        1.05230       -1.36898
H         -4.43425        1.34131        0.25632
C         -4.75393       -0.62781       -0.09979
C         -4.24643       -0.82979        1.32744
N         -4.27577        0.71233       -0.54619
N         -4.57707        0.35857        2.12002
