40
1sa1msa2eda_188.log	Energy: -1095281.9585499
S         -0.18914       -0.23282       -0.83946
O          1.14965       -0.27058       -1.46698
O         -0.97079       -1.46641       -1.04680
O         -0.12902        0.19046        0.57652
O         -0.93086        0.94412       -1.63895
H          2.11153        1.19552        1.11958
H         -1.86963        0.96784       -1.33318
S         -3.93366       -0.28700        0.35708
O         -5.36536       -0.38286        0.52567
O         -3.39512        0.76560       -0.51531
O         -3.41657       -1.69251       -0.14897
H         -2.48105       -1.62842       -0.51250
C         -3.15369       -0.11285        1.94679
H         -3.50298        0.82973        2.37050
H         -3.46557       -0.95228        2.56817
H         -2.07162       -0.09745        1.79555
H          5.06805       -2.65958        1.28445
H          4.09932       -1.65404        2.37377
H          2.70800       -3.19338        0.95699
H          2.28359       -1.50630        0.75152
H          3.56308       -3.19856       -1.20458
H          2.53298       -1.92732       -1.39891
H          5.78172       -0.36853        1.15672
H          5.05934       -0.81237       -0.25511
C          4.34016       -1.83626        1.32131
C          3.07478       -2.23824        0.55822
N          4.89183       -0.60573        0.73046
N          3.33664       -2.26702       -0.87833
H          0.96700        2.73925       -1.12840
H          1.67612        4.25014       -0.55448
H          3.40930        2.48681       -1.16995
H          3.53627        3.06902        0.51245
H          2.21189        0.57946       -0.41163
H          3.61467        0.63554        0.53894
H          0.42983        3.92392        1.29245
H          0.09849        2.35183        0.91640
C          1.52889        3.19564       -0.30471
C          2.90582        2.53411       -0.20187
N          0.83172        3.05382        0.97201
N          2.72455        1.15169        0.29722
