38
1sa1msa1dma1eda_386.log	Energy: -1060528.0791450
S          0.92735       -0.05538        0.42396
O          1.40505        1.25754       -0.04998
O          0.16443       -0.83087       -0.56715
O          2.07455       -0.83673        0.98884
O         -0.01369        0.18999        1.67937
H          3.32948        0.06451        0.87690
H         -0.96140        0.05498        1.43545
S         -3.30452       -0.84111       -0.01209
O         -4.31864        0.15914       -0.29205
O         -2.53100       -0.74002        1.22891
O         -2.32195       -0.95514       -1.24161
H         -1.36026       -0.82150       -0.96646
C         -4.07654       -2.44194       -0.04187
H         -4.81797       -2.45769        0.75738
H         -4.55481       -2.56973       -1.01282
H         -3.30881       -3.19754        0.12212
N         -1.81460        2.03670       -0.29853
C         -1.34655        2.29909       -1.65047
C         -1.38604        3.05007        0.65119
H         -2.82777        1.97232       -0.29774
H         -0.25510        2.22406       -1.66869
H         -1.75172        1.54333       -2.32877
H         -1.63439        3.29751       -2.02667
H         -0.29629        3.01386        0.74313
H         -1.67571        4.07583        0.35883
H         -1.81567        2.83702        1.63426
H          5.84168       -1.03903        0.53459
H          6.19393       -1.04780       -1.19298
H          5.58361        1.19744       -0.76697
H          4.11298        0.47118       -1.46631
H          4.60774        1.10184        1.37078
H          3.34541        1.59677        0.37319
H          4.76384       -2.89335       -0.71864
H          3.56035       -1.91138       -0.16806
C          5.38007       -0.95223       -0.46730
C          4.80171        0.44941       -0.61940
N          4.37906       -1.95850       -0.77104
N          4.01405        0.84373        0.58585
