40
1sa1msa2eda_09.log	Energy: -1095300.7688427
S         -0.85765       -1.86415       -0.43238
O         -2.01181       -2.68670       -0.73982
O         -0.84418       -0.74594       -1.59715
O         -0.97195       -1.08472        0.84458
O          0.46864       -2.52950       -0.47025
H         -1.81590        0.31454        0.75690
H          1.36991       -1.71754        0.67144
S          1.08499        2.02169       -0.09531
O          1.37144        1.49728        1.26543
O         -0.18987        2.77460       -0.17160
O          1.18454        0.94432       -1.12677
H         -0.07011       -0.13828       -1.47039
C          2.38693        3.17340       -0.47677
H          2.35581        3.97216        0.26433
H          3.33114        2.62919       -0.42062
H          2.21602        3.56675       -1.47888
H          3.90306       -0.87461        2.00538
H          3.42101       -2.58465        1.82984
H          4.91660       -1.98063        0.03092
H          3.31088       -2.32668       -0.62277
H          4.54853       -0.23652       -1.39981
H          2.99726        0.00833       -0.95327
H          1.46137       -1.39750        2.29500
H          1.76999       -0.16620        1.25313
C          3.34688       -1.58626        1.39127
C          3.89146       -1.60240       -0.03141
N          1.91381       -1.19272        1.40599
N          3.91757       -0.26338       -0.60731
H         -3.76657        1.97482       -0.75558
H         -2.76363        0.64004       -1.38822
H         -5.09265       -0.14479       -0.85916
H         -3.86626       -0.96730        0.10138
H         -5.72845        1.07505        1.05500
H         -5.26634       -0.32190        1.76852
H         -1.62481        1.93379        0.35829
H         -2.86806        1.44187        1.42850
C         -3.31348        1.00743       -0.52099
C         -4.35738       -0.00228       -0.05762
N         -2.34198        1.21312        0.58143
N         -4.94041        0.45516        1.20714
