27
1sa1msa1a1ma_48.log	Energy: -951834.4155469
S          1.54645       -0.11245        0.37697
O          1.72237       -1.54269        0.61796
O          0.90796        0.66849        1.43893
O          2.97234        0.54613        0.14739
O          0.80527        0.12571       -0.93773
H          3.59146       -0.14959       -0.26502
H          0.17950        1.66086       -0.91107
S         -2.52764       -0.65496       -0.11242
O         -3.77553       -1.29739       -0.45502
O         -2.51771        0.81572       -0.00931
O         -1.45999       -1.10800       -1.18321
H         -0.55443       -0.66404       -1.07212
C         -1.90816       -1.30127        1.42333
H         -2.66415       -1.08648        2.17965
H         -1.77168       -2.37566        1.30352
H         -0.96624       -0.80457        1.66532
N          4.38887       -1.50998       -0.78640
H          3.72537       -2.19129       -0.42093
H          5.29593       -1.68702       -0.36857
H          4.46642       -1.64497       -1.78868
N         -0.47553        2.47239       -0.74033
H         -0.71669        2.89795       -1.63274
C          0.09279        3.45161        0.21771
H         -0.64872        4.22093        0.43257
H          0.36154        2.90441        1.12045
H          0.98678        3.89819       -0.21692
H         -1.32484        1.99736       -0.36938
