41
1sa1msa1tma1eda_200.log	Energy: -1085202.2679127
S         -0.24829        1.93080        0.23384
O          0.99612        1.45451       -0.36300
O         -1.25742        2.50410       -0.65067
O         -0.83469        0.89862        1.15999
O          0.24407        3.13190        1.21541
H         -0.52058        3.68952        1.41213
S         -3.33400       -0.77043       -0.45542
O         -4.48021       -1.65075       -0.37321
O         -2.00470       -1.35020       -0.66680
O         -3.29763        0.08142        0.88357
H         -2.38401        0.47870        1.01092
C         -3.60481        0.45884       -1.70951
H         -3.60287       -0.05720       -2.67030
H         -4.57472        0.91883       -1.52033
H         -2.80042        1.19544       -1.64797
H          6.05938       -0.39375       -0.94695
H          5.08872       -1.22321       -2.17075
H          4.48874        1.15634       -2.02870
H          3.12277        0.13073       -1.59506
H          4.73959        1.67596        0.27508
H          3.10953        1.65197        0.06513
H          5.20060       -2.45870       -0.06963
H          4.42930       -1.21742        0.67384
C          5.04086       -0.74476       -1.18653
C          4.11062        0.46166       -1.26388
N          4.53094       -1.70958       -0.21060
N          3.94959        1.07935        0.05261
N          0.55635       -1.50999        0.81125
C          1.65871       -1.02158        1.68098
H          2.18580       -0.21358        1.17243
H          1.22577       -0.65831        2.61332
H          2.34345       -1.85071        1.86813
C         -0.13422       -2.67854        1.40996
H         -0.45650       -2.41762        2.41888
H         -1.00078       -2.91806        0.79512
H          0.56530       -3.51622        1.44531
C          1.03212       -1.78865       -0.57297
H          0.23123       -2.28665       -1.11676
H          1.25128       -0.82802       -1.03631
H          1.94269       -2.38933       -0.52146
H         -0.12975       -0.73169        0.75579
