36
1sa1msa2dma_176.log	Energy: -1025802.8955662
S          0.27505        1.42127        0.50300
O          0.25726        0.67109       -0.79332
O          1.52583        2.09235        0.78631
O         -0.83479        2.55299        0.38993
O         -0.18974        0.49384        1.59006
H         -1.65710        2.15302        0.02036
H          0.64827       -0.82613        1.59353
S         -3.06970       -0.34338       -0.55298
O         -4.13149       -1.00010       -1.28038
O         -2.94488        1.11605       -0.62705
O         -1.69110       -0.99081       -0.99691
H         -0.93393       -0.30975       -0.96078
C         -3.17561       -0.78652        1.16734
H         -4.10379       -0.35975        1.54966
H         -3.20058       -1.87431        1.23867
H         -2.30818       -0.35949        1.67452
N          1.21344       -1.73545        1.62230
C          2.63455       -1.40177        1.91020
C          1.02542       -2.46232        0.33993
H          0.82174       -2.27952        2.39008
H          3.03510       -0.90895        1.01826
H          2.66806       -0.73308        2.77026
H          3.18571       -2.32164        2.11412
H          1.47588       -1.85324       -0.44387
H          1.52301       -3.43182        0.39662
H         -0.04166       -2.58131        0.15115
N          3.21932       -0.13913       -1.11379
C          3.56011       -0.86995       -2.32450
C          4.25017        0.81496       -0.72541
H          2.34146        0.35718       -1.24972
H          4.42985       -1.51033       -2.13695
H          2.72526       -1.51229       -2.62213
H          3.80502       -0.21393       -3.17650
H          5.15473        0.27621       -0.41718
H          4.53127        1.50324       -1.53930
H          3.88847        1.41207        0.11486
