35
1sa1msa1ma1eda_263.log	Energy: -1035879.8318259
S         -0.61605       -2.20303        0.35384
O          0.80980       -2.51944        0.64499
O         -1.58523       -3.00947        1.06007
O         -0.84413       -0.69438        0.93806
O         -0.84424       -2.05767       -1.10966
H         -0.12062       -0.12766        0.58944
H         -1.96718       -0.93410       -1.39785
S          2.57595        0.29352       -0.12536
O          3.25700        0.69503        1.08901
O          1.16329        0.73626       -0.25419
O          2.65318       -1.23440       -0.38998
H          1.86069       -1.79113        0.04076
C          3.46148        0.90776       -1.53568
H          3.49374        1.99397       -1.44563
H          4.46803        0.49091       -1.50185
H          2.93903        0.59662       -2.43945
N         -2.69234       -0.16360       -1.47146
H         -2.17531        0.76765       -1.35795
C         -3.72312       -0.34280       -0.42133
H         -4.47451        0.44345       -0.50402
H         -4.18686       -1.32310       -0.52951
H         -3.22445       -0.29215        0.54572
H         -3.10048       -0.20148       -2.40284
H         -1.57768        4.17829       -0.24851
H         -3.01199        3.12905       -0.27292
H         -2.18118        3.24899        1.96316
H         -1.86049        1.61288        1.37756
H         -0.00455        2.92459        2.56334
H          0.44692        2.22236        1.16637
H         -1.31631        2.75159       -2.06789
H         -0.35966        2.05564       -0.95394
C         -1.92289        3.14291       -0.14275
C         -1.57119        2.67023        1.26268
N         -1.33373        2.26547       -1.17538
N         -0.16657        2.92808        1.56345
