27
1sa1msa1a1ma_136.log	Energy: -951827.9986539
S          0.82571       -0.76106       -0.24640
O          1.28562       -0.48804        1.13768
O          0.06401        0.37977       -0.81138
O          1.91437       -1.23015       -1.12119
O         -0.18270       -1.99664       -0.18323
H         -1.02927       -1.69787        0.23047
S         -3.06824        0.33134        0.26412
O         -4.28077        0.82714        0.87249
O         -2.49352       -0.92586        0.75876
O         -1.97945        1.47601        0.36721
H         -1.10713        1.12942        0.00760
C         -3.29251        0.15429       -1.49359
H         -4.00740       -0.65457       -1.64843
H         -3.68133        1.09477       -1.88367
H         -2.32463       -0.08742       -1.93640
N          3.88316       -1.05143        0.74233
H          3.00930       -0.91186        1.29416
H          3.49734       -1.40440       -0.15241
H          4.31262       -0.08969        0.56494
H          4.52610       -1.70521        1.17677
N          4.58326        1.57149        0.14342
H          4.86105        2.14388        0.93565
C          3.27114        2.01876       -0.36903
H          3.26617        3.06977       -0.67596
H          2.98753        1.39830       -1.22167
H          2.51471        1.87093        0.40432
H          5.29830        1.70298       -0.56626
