41
1sa1msa1tma1eda_118.log	Energy: -1085208.9991126
S          0.85331        0.58147        0.43978
O          0.97103       -0.79205       -0.12971
O          0.98988        1.62853       -0.59000
O         -0.37199        0.72513        1.26191
O          2.05022        0.74789        1.45570
H          2.91889        0.87721        0.91052
S         -2.31700       -2.03096       -0.16807
O         -3.22780       -3.08514       -0.56212
O         -2.75563       -0.64016       -0.31945
O         -0.97760       -2.25128       -0.97384
H         -0.24496       -1.61739       -0.68310
C         -1.82188       -2.25309        1.52695
H         -2.72646       -2.18247        2.13242
H         -1.37021       -3.24023        1.62315
H         -1.12054       -1.45621        1.78249
H          5.74577       -1.07661       -0.12167
H          4.83274       -1.94255       -1.34295
H          4.90260        0.39094       -1.94952
H          3.23247       -0.05191       -1.54568
H          5.03543        1.34400        0.30748
H          3.80512        2.01745       -0.54063
H          3.93181       -1.25782        1.36493
H          2.93646       -1.84756        0.22748
C          4.73367       -1.22142       -0.52343
C          4.23405        0.09363       -1.12921
N          3.91093       -1.81395        0.51760
N          4.12750        1.15465       -0.10942
N         -2.15957        2.24661       -0.13191
C         -3.56447        2.20086        0.34103
H         -3.99193        1.24011        0.05894
H         -3.57068        2.30325        1.42682
H         -4.11706        3.02569       -0.11470
C         -1.47376        3.49774        0.28118
H         -1.52148        3.58084        1.36706
H         -0.43224        3.42847       -0.03392
H         -1.97341        4.34828       -0.18795
C         -2.05887        2.03494       -1.60178
H         -0.99990        2.00093       -1.85986
H         -2.53162        1.08329       -1.83909
H         -2.56046        2.86303       -2.10822
H         -1.63061        1.47073        0.33659
