38
1sa1msa1dma1eda_387.log	Energy: -1060527.4870083
S          1.00073       -0.83676       -0.08884
O          1.88165       -2.00643        0.03088
O          0.19087       -0.53919        1.10194
O          1.76786        0.36860       -0.55768
O          0.00265       -1.21737       -1.27001
H          3.21256       -0.13569       -0.88176
H         -0.72697       -0.54684       -1.31261
S         -2.54799        1.38820       -0.22229
O         -3.94737        1.03284       -0.10225
O         -1.75513        0.81819       -1.32010
O         -1.78970        1.18259        1.14816
H         -1.10018        0.45358        1.09931
C         -2.43797        3.15819       -0.36189
H         -2.97189        3.44075       -1.26965
H         -2.91107        3.59908        0.51536
H         -1.38610        3.43464       -0.42498
N         -2.57854       -1.76108        0.39079
C         -3.43356       -2.20284       -0.69671
C         -3.24719       -1.77139        1.68019
H         -1.73873       -2.32750        0.43004
H         -4.24470       -1.47896       -0.82479
H         -2.85892       -2.23156       -1.62699
H         -3.88057       -3.19954       -0.53061
H         -4.04644       -1.02317        1.67158
H         -3.69179       -2.74931        1.93808
H         -2.53439       -1.49537        2.46205
H          5.31778        1.58684       -0.68914
H          6.07113        1.38548        0.89134
H          5.98794       -0.82046        0.04817
H          4.58621       -0.72923        1.14501
H          4.55757       -0.66872       -1.80047
H          3.70670       -1.66551       -0.74493
H          4.14075        2.74411        1.17285
H          3.13699        1.56977        0.59733
C          5.15776        1.17620        0.32583
C          5.02400       -0.33871        0.22438
N          4.03360        1.74544        1.04640
N          4.10854       -0.72833       -0.88937
