35
1sa1msa1ma1eda_256.log	Energy: -1035878.8889678
S         -0.24495        0.10308        1.12291
O         -1.50832        0.65642        1.59376
O          0.96520        0.68485        1.73846
O         -0.20354       -1.38762        1.12128
O         -0.21256        0.51416       -0.44413
H         -1.13843       -1.97834        0.00787
H          0.68707        0.31859       -0.80087
S          3.53683        0.19420       -0.48392
O          4.09771        1.48686       -0.82063
O          2.29746       -0.21261       -1.16905
O          3.34193        0.03036        1.06892
H          2.39595        0.27732        1.36179
C          4.75653       -1.06647       -0.76120
H          4.99240       -1.05112       -1.82566
H          5.63761       -0.81934       -0.16916
H          4.33725       -2.02690       -0.46448
N         -2.92027        2.15247       -0.68419
H         -2.47211        1.87775        0.18908
C         -3.84373        3.26433       -0.46809
H         -3.37436        4.16470       -0.04838
H         -4.32101        3.53753       -1.41397
H         -4.63310        2.94635        0.21907
H         -2.16271        2.42428       -1.30256
H         -3.73901       -3.29697       -0.59833
H         -2.99736       -2.96157        0.99074
H         -4.88878       -1.32933        0.34038
H         -3.34106       -0.55213        0.70974
H         -4.55585       -0.77278       -1.90741
H         -3.55184        0.40234       -1.26609
H         -1.47896       -3.20910       -1.11597
H         -2.06139       -1.64629       -1.41002
C         -3.16505       -2.57234       -0.01458
C         -3.85704       -1.20047       -0.00597
N         -1.85366       -2.36838       -0.68551
N         -3.73629       -0.61143       -1.33449
