41
1sa1msa1tma1eda_54.log	Energy: -1085217.5286920
S         -2.71778       -1.05823       -0.08975
O         -1.77946       -1.00989        1.03264
O         -3.37130        0.24552       -0.36763
O         -2.17038       -1.69434       -1.30490
O         -3.90457       -2.03326        0.43790
H         -4.54816       -2.13915       -0.27571
S          2.46948        1.14156       -0.12754
O          2.33413        0.39488        1.14604
O          2.04495        2.54919       -0.05792
O          1.81250        0.39328       -1.25443
C          4.21178        1.16108       -0.52948
H          4.73235        1.69538        0.26587
H          4.56969        0.13304       -0.59703
H          4.33729        1.67390       -1.48323
H          0.88880       -3.93235       -0.38463
H          1.66780       -3.10493       -1.75876
H          3.27218       -3.77742        0.10008
H          3.30198       -2.05513       -0.28736
H          2.85237       -3.07884        2.20505
H          2.42161       -1.55588        1.71985
H         -0.37487       -1.96179       -0.96637
H          0.32773       -1.78163        0.51187
C          1.43261       -3.03689       -0.69409
C          2.69047       -2.85230        0.15579
N          0.53896       -1.87605       -0.48905
N          2.31608       -2.55114        1.53073
H          1.00605       -0.98307       -0.79833
N         -1.65761        2.27193        0.19680
C         -0.92146        2.26636       -1.09770
H         -0.42219        1.30590       -1.22124
H         -1.64416        2.41918       -1.89975
H         -0.15679        3.04312       -1.08028
C         -2.41265        3.53173        0.38295
H         -3.10217        3.65904       -0.45222
H         -2.97438        3.47496        1.31574
H         -1.70809        4.36479        0.42046
C         -0.76255        1.98978        1.35373
H         -1.36438        1.99289        2.26289
H         -0.31789        1.00518        1.22418
H          0.02671        2.74120        1.38484
H         -2.35671        1.49388        0.12054
