41
1sa1msa1tma1eda_227.log	Energy: -1085193.4793288
S         -0.98040       -0.40938       -0.45251
O         -1.82399       -1.59895       -0.48343
O          0.24737       -0.48724       -1.27386
O         -1.75252        0.84200       -0.73430
O         -0.51502       -0.28985        1.07819
H         -3.19140        0.59185       -0.21053
H          0.16654        0.42083        1.14712
S          2.43888        1.85803        0.05773
O          3.69650        1.28018        0.48933
O          1.28369        1.73289        0.95949
O          2.03462        1.34465       -1.37452
H          1.31475        0.62547       -1.33911
C          2.68544        3.58124       -0.28996
H          3.00274        4.05094        0.64139
H          3.46520        3.66354       -1.04695
H          1.74531        4.00260       -0.64376
H          2.75414       -1.37184       -0.65301
H          4.23606       -2.11039       -0.04221
H          2.93619       -3.74309       -1.28356
H          3.00010       -4.20619        0.43135
H          0.70487       -2.85026       -0.80761
H          0.74387       -4.39344       -0.25032
H          3.09626       -0.80142        1.65800
H          1.82577       -1.85275        1.59847
C          3.14726       -2.09751        0.07943
C          2.59127       -3.47166       -0.27163
N          2.82847       -1.75967        1.46088
N          1.13758       -3.46866       -0.12791
N         -4.16615        0.38892        0.19332
C         -3.95014       -0.24915        1.51812
H         -3.41223       -1.18435        1.36391
H         -3.33881        0.41405        2.13056
H         -4.91804       -0.42612        1.99323
C         -4.86212        1.68878        0.31283
H         -4.27881        2.33934        0.96514
H         -4.93872        2.14323       -0.67535
H         -5.85907        1.53462        0.73241
C         -4.84100       -0.53338       -0.75256
H         -4.94553       -0.03352       -1.71604
H         -4.20920       -1.41450       -0.86725
H         -5.82431       -0.80050       -0.35788
