41
1sa1msa1tma1eda_136.log	Energy: -1085209.0047414
S          1.94009       -1.72466       -0.12230
O          0.55394       -1.42002        0.24757
O          2.88217       -0.84340        0.78229
O          2.39981       -3.08288       -0.05432
O          2.17894       -1.19384       -1.58201
H          1.81503       -0.25548       -1.67016
S          1.02722        1.97367       -0.37251
O         -0.38119        1.88706        0.07243
O          1.28999        1.24540       -1.64243
O          1.98111        1.58872        0.71180
H          2.57020        0.11872        0.77955
C          1.35437        3.68823       -0.72148
H          0.66533        4.00914       -1.50267
H          1.19538        4.25661        0.19487
H          2.38794        3.77367       -1.05636
H         -4.00146       -0.46112       -2.75837
H         -3.45274        1.10758       -2.14780
H         -1.55618       -0.34173       -2.77356
H         -1.51652        0.11410       -1.08321
H         -2.27495       -2.51336       -2.12396
H         -1.13454       -2.12676       -1.01490
H         -5.15948        0.16161       -0.72553
H         -4.21200       -1.14285       -0.44038
C         -3.49106        0.03794       -1.91725
C         -2.06498       -0.48991       -1.81031
N         -4.19611       -0.14696       -0.64555
N         -2.06022       -1.88332       -1.35747
N         -1.31849        0.00115        1.89534
C         -2.41935        0.99777        1.99754
H         -1.98908        1.99033        1.87656
H         -3.13388        0.79375        1.19269
H         -2.88994        0.88948        2.97752
C         -1.84236       -1.38890        1.95712
H         -2.48742       -1.55250        1.09328
H         -1.00314       -2.07960        1.90780
H         -2.39209       -1.50660        2.89332
C         -0.24820        0.23854        2.89733
H          0.53583       -0.50234        2.74359
H          0.16299        1.23436        2.73453
H         -0.67830        0.14625        3.89674
H         -0.87288        0.15624        0.97686
