33
1sa1msa1a1tma_30.log	Energy: -1001158.3615720
S          1.76157        0.31431        0.31092
O          0.70610        0.28904       -0.78533
O          3.02575        0.85643       -0.18299
O          1.19323        0.93827        1.50961
O          1.98787       -1.21667        0.68357
H          2.75708       -1.58853        0.12819
S         -1.94752       -1.69046       -0.07547
O         -2.89366       -2.74315       -0.37695
O         -2.41385       -0.30055       -0.04738
O         -0.76472       -1.80953       -1.11818
H         -0.14222       -1.01869       -1.02796
C         -1.16379       -2.02231        1.48813
H         -1.94957       -2.01078        2.24449
H         -0.69579       -3.00443        1.43010
H         -0.41658       -1.25218        1.68553
N          4.08460       -1.89423       -0.80613
H          4.86010       -2.36128       -0.34899
H          4.34467       -0.92455       -0.97838
H          3.91801       -2.34736       -1.69820
N         -0.94607        2.38412       -0.19967
C          0.12434        3.40670       -0.32230
H          0.84091        3.25330        0.48459
H          0.62637        3.27272       -1.28057
H         -0.32521        4.40002       -0.25987
C         -1.94030        2.49148       -1.29603
H         -1.41656        2.40503       -2.24863
H         -2.65275        1.67386       -1.19398
H         -2.44008        3.46033       -1.22806
C         -1.58391        2.42209        1.14164
H         -2.33150        1.63179        1.18388
H         -0.80812        2.23886        1.88455
H         -2.04227        3.40386        1.28314
H         -0.46464        1.45883       -0.31399
