35
1sa1msa1ma1eda_139.log	Energy: -1035886.4416467
S          1.36243       -0.24130        0.23527
O          2.51726        0.46846       -0.34085
O          0.32631       -0.50482       -0.82315
O          1.86592       -1.63883        0.75855
O          0.74191        0.43466        1.39297
H          2.68932       -1.92678        0.20212
H         -0.58358        1.34042        0.72218
S         -2.99447       -0.96055        0.00544
O         -3.18061        0.32546       -0.68850
O         -2.84620       -0.88755        1.44980
O         -1.83030       -1.76786       -0.65983
H         -0.91876       -1.26517       -0.66022
C         -4.35516       -2.02171       -0.41104
H         -5.25163       -1.56018        0.00377
H         -4.42126       -2.09707       -1.49574
H         -4.17799       -2.99593        0.04385
N          4.02972       -2.11055       -0.63396
H          4.19414       -3.01067       -1.07215
C          5.15304       -1.71253        0.22360
H          6.10602       -1.64066       -0.31316
H          4.91959       -0.74021        0.66176
H          5.25829       -2.43685        1.03441
H          3.88897       -1.42089       -1.36804
H         -1.34625        4.03860       -0.25770
H         -1.07576        3.57245        1.44208
H          0.96708        4.66412        0.35168
H          1.27330        3.04370        0.98825
H          1.42185        3.83779       -1.73775
H          1.83552        2.38219       -1.05158
H         -2.05323        1.72012       -0.02660
H         -0.61775        1.80409       -0.85509
C         -0.76830        3.39472        0.40974
C          0.74033        3.60204        0.21210
N         -1.06414        1.98921        0.05620
N          1.12457        3.10839       -1.10533
