35
1sa1msa1ma1eda_270.log	Energy: -1035876.5704145
S         -0.81049        0.48664       -0.91521
O          0.51420        0.83990       -1.45296
O         -1.94486        0.64134       -1.81408
O         -0.78632       -1.08917       -0.58487
O         -1.04261        1.15601        0.41085
H          0.04630       -1.30854       -0.09208
H         -2.47103        0.89995        0.91052
S          2.88160       -1.25333        0.15749
O          3.71490       -2.41267       -0.07338
O          1.52356       -1.45679        0.69163
O          2.77029       -0.45998       -1.20797
H          1.90956        0.04905       -1.28013
C          3.71251       -0.11220        1.22770
H          3.82488       -0.60820        2.19303
H          4.68867        0.09378        0.78755
H          3.09694        0.79621        1.31091
N          1.70542        2.46612        1.24391
H          0.80065        2.03649        1.06024
C          2.07085        3.35327        0.13980
H          1.36401        4.17850       -0.02998
H          3.06066        3.78283        0.32378
H          2.12085        2.76896       -0.78145
H          1.61650        2.99142        2.10737
H         -5.42083        0.50741        0.48150
H         -4.16698        0.94805       -0.72432
H         -4.91671       -1.49639       -0.84806
H         -3.18253       -1.25075       -0.64652
H         -5.01491       -2.29402        1.35219
H         -3.43488       -2.64023        1.08371
H         -3.79549        1.54609        1.75998
H         -3.46906       -0.09903        1.89211
C         -4.39404        0.33385        0.14754
C         -4.14864       -1.14825       -0.14932
N         -3.47937        0.71933        1.25975
N         -4.11632       -1.89167        1.11279
