38
1sa1msa1dma1eda_202.log	Energy: -1060545.0894960
S          0.91885        0.88670       -0.79521
O          1.33077        0.14083       -1.98018
O          0.23137        0.03099        0.23703
O          2.23033        1.41823       -0.07734
O          0.09252        2.09263       -1.03881
H          3.03486        0.84587       -0.39653
H         -1.25465        1.95587       -0.12336
S         -2.64197       -1.50305       -0.03004
O         -3.14243       -0.86815       -1.24249
O         -2.79244       -0.70950        1.20403
O         -1.16344       -1.97230       -0.18366
H         -0.50353       -1.16342       -0.06653
C         -3.43817       -3.07138        0.19885
H         -3.25432       -3.67426       -0.69018
H         -3.02319       -3.54265        1.08895
H         -4.50376       -2.87540        0.31972
N         -2.05491        1.95052        0.56503
C         -3.28931        2.39887       -0.11182
C         -1.64369        2.76529        1.72538
H         -2.18512        0.96851        0.86747
H         -3.12496        3.39085       -0.53486
H         -3.51909        1.68361       -0.90228
H         -4.10729        2.42672        0.60999
H         -1.46497        3.78980        1.39643
H         -2.42776        2.74383        2.48393
H         -0.72188        2.34348        2.12605
H          5.56718       -0.23960        1.23270
H          5.25756       -1.92481        1.66146
H          5.24071       -1.91325       -0.69037
H          3.52577       -1.94986       -0.23221
H          5.01248        0.39642       -1.17852
H          3.69832       -0.31727       -1.86159
H          3.85300       -0.48164        2.96899
H          3.08730        0.06679        1.62682
C          4.79517       -1.03110        1.22845
C          4.43257       -1.33855       -0.21986
N          3.61022       -0.71354        2.01330
N          4.15189       -0.10391       -0.97501
