40
1sa1msa2eda_208.log	Energy: -1095279.8931150
S          0.04262       -1.72379       -0.02658
O         -0.16467       -0.69878        1.07725
O          0.14682       -1.03248       -1.33903
O          1.31977       -2.48393        0.23746
O         -1.12349       -2.66549        0.02921
H          2.38375       -1.95079       -0.57929
H         -2.29231       -2.07892        0.75698
S         -0.18955        2.61061        0.10554
O          0.40033        3.92764        0.26744
O         -1.55505        2.37813        0.57238
O          0.78486        1.57146        0.77341
H          0.35572        0.61638        0.89620
C         -0.13004        2.16236       -1.61968
H         -0.88069        2.76131       -2.13714
H          0.86541        2.40077       -1.99684
H         -0.32882        1.09046       -1.70791
H          3.86749        0.53708       -1.45164
H          2.16525        0.38370       -0.92923
H          3.60742        1.15810        0.96117
H          2.87264       -0.41012        1.28282
H          5.68002        0.07404        0.65056
H          5.02455       -0.94025        1.75065
H          2.98832       -1.58575       -2.14759
H          4.08921       -1.82242       -0.89376
C          3.17646        0.00250       -0.79223
C          3.61285        0.10447        0.66336
N          3.17822       -1.43646       -1.16012
N          4.91004       -0.56470        0.81717
H         -4.10671        0.23182        1.47318
H         -2.32509        0.27208        1.31197
H         -3.44786        1.08333       -0.76539
H         -2.47032       -0.35894       -1.04575
H         -5.37927       -0.22413       -1.04482
H         -4.37697       -1.11382       -1.98296
H         -3.21691       -1.87289        2.18845
H         -3.99425       -2.06399        0.71073
C         -3.24307       -0.18082        0.94325
C         -3.37973        0.01036       -0.56154
N         -3.19292       -1.64708        1.19782
N         -4.52635       -0.77204       -1.04167
