40
1sa1msa2eda_37.log	Energy: -1095297.1983390
S          2.20462        1.27878       -0.63646
O          2.51713        0.09486       -1.46266
O          1.53630        2.36232       -1.37582
O          1.53927        0.93003        0.63165
O          3.63591        1.87392       -0.14324
H          4.12374        2.17102       -0.92347
S         -2.21138       -1.27511       -0.63838
O         -1.56088       -0.95944        0.66592
O         -1.45856       -2.30166       -1.39827
O         -2.49249       -0.03677       -1.41421
C         -3.80054       -1.99639       -0.27187
H         -3.63621       -2.91570        0.29035
H         -4.37763       -1.28170        0.31574
H         -4.29920       -2.20768       -1.21793
H          1.40429       -3.67180        0.88887
H          2.45038       -3.45914       -0.54310
H          3.65899       -3.02769        1.60939
H          3.64571       -1.61215        0.55311
H          2.87388       -1.53574        3.11041
H          2.18966       -0.54935        1.98758
H          0.25025       -2.34329       -0.79682
H          0.55843       -1.45048        0.53196
C          1.98058       -2.95264        0.30333
C          3.01383       -2.25352        1.18364
N          1.02969       -1.95202       -0.23442
N          2.34250       -1.52068        2.25027
H          1.53176       -1.24168       -0.80397
H         -1.40687        3.71013        0.87177
H         -2.48280        3.45365       -0.53075
H         -3.60865        3.01328        1.67819
H         -3.61387        1.60752        0.60796
H         -2.73055        1.53218        3.14383
H         -2.08482        0.55259        1.98159
H         -0.26538        2.39863       -0.81584
H         -0.52185        1.50344        0.52416
C         -1.97840        2.96946        0.30874
C         -2.96909        2.25145        1.22297
N         -1.01655        1.98536       -0.24017
N         -2.24805        1.51987        2.25578
H         -1.51591        1.25127       -0.79353
