30
1sa1msa2ma_24.log	Energy: -976495.4185522
S          1.60532       -1.40139       -0.01800
O          2.29403       -0.75639        1.11526
O          0.74311       -2.52324        0.33780
O          0.95983       -0.39536       -0.90826
O          2.77127       -1.98049       -0.99107
H          3.18082       -2.73719       -0.54978
S         -2.40063       -0.21779        0.03994
O         -3.72279        0.27908       -0.26834
O         -1.61109        0.48425        1.06296
O         -1.58059       -0.23844       -1.31268
H         -0.59158       -0.37532       -1.15684
C         -2.47913       -1.92936        0.50587
H         -3.02297       -1.97846        1.44998
H         -3.01653       -2.46157       -0.27908
H         -1.45818       -2.30422        0.61487
N          1.49145        2.49040       -1.29934
H          2.25611        3.09778       -1.57500
C          0.24984        2.87157       -1.98674
H          0.33600        2.85860       -3.07939
H         -0.54300        2.17551       -1.70312
H         -0.04912        3.87509       -1.67289
H          1.74321        1.53642       -1.55639
N          0.91101        1.66917        1.30602
H          1.16953        2.11023        0.37344
H         -0.04098        1.27775        1.20119
C          0.98873        2.61700        2.43156
H          0.74426        2.10321        3.36127
H          1.99822        3.02401        2.49520
H          0.27775        3.42736        2.26927
H          1.53731        0.85022        1.41988
