30
1sa1msa1a1dma_07.log	Energy: -976508.0253492
S          2.68510       -0.44392        0.08857
O          2.97265        0.79827        0.80289
O          2.58845       -1.65726        0.90432
O          1.51965       -0.31084       -0.84630
O          3.90041       -0.67582       -0.97000
H          4.72641       -0.72001       -0.46930
S         -2.72308       -0.30623       -0.11667
O         -2.56752       -1.37472       -1.12146
O         -2.54588        1.07217       -0.64906
O         -1.83943       -0.54080        1.07490
C         -4.39996       -0.37859        0.48310
H         -4.52653        0.39191        1.24362
H         -5.06595       -0.20032       -0.36140
H         -4.56872       -1.36951        0.90471
N         -0.11873       -2.33269       -0.01955
H          0.47169       -1.65166       -0.54664
H          0.51085       -2.94812        0.49173
H         -0.71839       -1.75440        0.61810
H         -0.75397       -2.81845       -0.65150
N          0.00818        1.90357       -0.11896
C          0.06940        2.09540        1.34958
C          0.54044        3.03702       -0.90109
H          0.55960        1.05702       -0.37128
H         -0.47710        3.00399        1.60835
H         -0.40634        1.23150        1.81450
H          1.11537        2.16503        1.64910
H         -0.02548        3.93883       -0.66228
H          1.59307        3.17354       -0.64945
H          0.44124        2.80901       -1.96227
H         -0.98022        1.68674       -0.38867
