27
1sa1msa1a1ma_175.log	Energy: -951818.4099139
S          2.16884       -0.18833       -0.30442
O          2.23084       -1.55879        0.22069
O          1.23468       -0.00409       -1.44125
O          1.97497        0.82581        0.75240
O          3.63161        0.04453       -0.93929
H          3.60591        0.84458       -1.48291
S         -2.02178       -0.82230       -0.20953
O         -1.46511       -0.37593        1.08276
O         -2.07965       -2.25355       -0.42973
O         -1.29923       -0.07187       -1.38247
H         -0.27615       -0.11143       -1.35613
C         -3.63278       -0.09994       -0.37774
H         -4.26564       -0.55427        0.38502
H         -3.54341        0.97523       -0.22347
H         -4.00552       -0.32922       -1.37578
N          0.80104       -0.98674        2.45333
H          0.78849       -1.32052        3.41175
H          1.35651       -1.59135        1.81512
H         -0.15494       -0.89521        2.04537
H          1.24993       -0.06377        2.35020
N         -0.27508        2.93540       -0.25364
H         -0.63275        2.39562       -1.03369
C         -1.31573        3.14218        0.74488
H         -1.72289        2.21821        1.18781
H         -0.91997        3.75608        1.56008
H         -2.14399        3.70340        0.29920
H          0.49608        2.39997        0.13522
