35
1sa1msa1ma1eda_124.log	Energy: -1035886.5232041
S          0.56686        2.23794        0.09103
O         -0.91797        2.32463       -0.00164
O          0.98606        1.55980        1.33719
O          1.22659        1.77891       -1.12074
O          1.04822        3.77705        0.25040
H          0.61042        4.15144        1.02697
S         -2.50334       -0.69853       -0.32035
O         -2.82048       -0.57673        1.09698
O         -1.27025       -1.44300       -0.62745
O         -2.49753        0.68583       -1.03917
H         -1.81466        1.35220       -0.62922
C         -3.84853       -1.46789       -1.18349
H         -4.74953       -0.88273       -1.00165
H         -3.60562       -1.50019       -2.24512
H         -3.95151       -2.47380       -0.77586
N          0.54958       -1.14657        1.55109
H          0.73442       -0.12094        1.50159
H         -0.10750       -1.35645        0.78283
C         -0.03374       -1.51716        2.85524
H         -0.17443       -2.59792        2.89654
H          0.64242       -1.20407        3.65084
H         -0.99791       -1.02062        2.96485
H          1.45940       -1.64550        1.33302
H          3.50008       -3.12992       -1.26171
H          1.79410       -3.33967       -0.82762
H          2.11934       -1.58601       -2.57581
H          1.36246       -0.93690       -1.13540
H          4.05831       -0.40032       -2.02955
H          2.95092        0.57309       -1.29441
H          3.38193       -3.10200        1.09952
H          3.58376       -1.54018        0.61114
C          2.64050       -2.64580       -0.77548
C          2.29991       -1.35171       -1.51793
N          2.92791       -2.32465        0.63159
N          3.35124       -0.36115       -1.30502
