35
1sa1msa1ma1eda_231.log	Energy: -1035883.5802600
S          0.10194       -0.70549       -0.68713
O          1.29458       -0.87017       -1.53546
O         -1.13220       -1.27426       -1.26840
O          0.33293       -1.13105        0.71176
O         -0.11750        0.89173       -0.65638
H          2.11933       -1.45586        0.95698
H         -1.02076        1.07538       -0.29922
S         -3.81281        0.35861        0.19666
O         -4.80714        0.85061       -0.73448
O         -2.59054        1.15509        0.38668
O         -3.41527       -1.13002       -0.12851
H         -2.50185       -1.19995       -0.57517
C         -4.56730        0.13488        1.78939
H         -4.93353        1.11064        2.10988
H         -5.39317       -0.56746        1.67690
H         -3.81461       -0.24769        2.47777
N          3.03505       -1.56274        0.47907
H          2.73905       -1.44915       -0.50596
C          3.66314       -2.86962        0.74115
H          4.59407       -2.94568        0.17875
H          3.87401       -2.96336        1.80667
H          2.98422       -3.66537        0.43456
H          3.65451       -0.73568        0.73617
H          5.14233        2.54323        0.11511
H          5.22688        1.06783       -0.86116
H          3.34051        2.56698       -1.54050
H          2.77976        0.97665       -1.05146
H          2.41469        3.44172        0.42161
H          1.41150        2.15535        0.21528
H          5.36709        0.70735        1.59591
H          3.81014        1.23833        1.68512
C          4.62774        1.59890       -0.11381
C          3.23636        1.89747       -0.67595
N          4.48933        0.76009        1.08890
N          2.37579        2.43000        0.37831
