38
1sa1msa1dma1eda_262.log	Energy: -1060544.8301463
S         -0.34348        2.17827        0.03393
O          0.49337        2.12874       -1.16022
O         -1.81217        2.22913       -0.22867
O         -0.00986        1.18812        1.06889
O         -0.00472        3.64442        0.65912
H         -0.62715        3.81307        1.37899
S         -2.81603       -1.07912       -0.05167
O         -2.72063       -2.06372        1.01459
O         -1.65264       -0.93501       -0.93746
O         -3.20985        0.31002        0.53819
H         -2.59917        1.09196        0.20991
C         -4.22501       -1.47060       -1.06280
H         -4.05184       -2.45264       -1.50370
H         -5.10665       -1.48555       -0.42200
H         -4.31433       -0.70660       -1.83483
N          0.91891       -1.30980        0.12158
C          1.22508       -2.37346       -0.85567
C          0.72605       -1.79545        1.50352
H          1.68289       -0.57272        0.09825
H          0.44527       -3.13502       -0.81224
H          1.23955       -1.92998       -1.85188
H          2.20555       -2.79072       -0.61946
H         -0.17697       -2.40755        1.54482
H          1.59717       -2.38387        1.79860
H          0.60225       -0.92662        2.14922
H          0.04836       -0.84108       -0.17000
H          5.49337        0.06030        0.58237
H          5.77037       -1.05404       -0.75760
H          4.59639        0.98911       -1.47890
H          3.64995       -0.47524       -1.78957
H          3.19237        1.23947        0.55757
H          2.26642        1.24141       -0.77633
H          4.96502       -2.35155        0.98940
H          3.72432       -1.34779        1.31147
C          4.99101       -0.62596       -0.11992
C          4.03648        0.17504       -0.99719
N          4.29601       -1.72151        0.56016
N          2.89356        0.65534       -0.21937
