30
1sa1msa1a1dma_36.log	Energy: -976498.0365091
S          1.35305       -1.42941       -0.11101
O          0.51612       -0.98040       -1.26328
O          2.77956       -1.41952       -0.43722
O          0.97044       -0.76743        1.13968
O          0.93362       -2.97996        0.15225
H          1.25966       -3.51163       -0.58681
S         -2.53777        0.08164        0.05692
O         -3.94786        0.32869       -0.14830
O         -1.62957        1.23603        0.12354
O         -2.05126       -0.88651       -1.08865
H         -1.03993       -0.92868       -1.15004
C         -2.30401       -0.87245        1.53918
H         -2.68399       -0.27255        2.36718
H         -2.87607       -1.79459        1.43794
H         -1.23587       -1.06912        1.65625
N          3.36139        1.11248        1.02624
H          3.04665        0.70694        1.90409
H          4.20094        1.65242        1.20652
H          3.60275        0.31390        0.43658
N          0.97638        2.04982       -0.12767
C          0.60872        3.31870        0.53143
C          1.12907        2.15755       -1.59482
H          1.88080        1.69435        0.29937
H         -0.34858        3.66213        0.13842
H          0.51572        3.14136        1.60284
H          1.38733        4.06013        0.34341
H          0.19052        2.51266       -2.02278
H          1.93567        2.85794       -1.81863
H          1.35549        1.16705       -1.98899
H          0.22889        1.36587        0.07128
