38
1sa1msa1dma1eda_271.log	Energy: -1060546.7857922
S         -0.14108       -0.44607       -0.78122
O          0.45982       -0.31318        0.57917
O         -1.06987        0.67632       -1.06174
O          0.86342       -0.69293       -1.81065
O         -1.03317       -1.77620       -0.75172
H         -1.83191       -1.61091       -0.19480
S         -3.95176        0.22383        0.47688
O         -5.06974        0.52599        1.34093
O         -3.24980       -1.05361        0.65577
O         -2.91391        1.41097        0.60503
H         -2.10381        1.19799        0.04528
C         -4.45153        0.31737       -1.23005
H         -5.14939       -0.50118       -1.40926
H         -4.93428        1.28132       -1.38963
H         -3.55809        0.21551       -1.84875
N          2.99396       -1.26375        0.53140
C          3.03588       -2.47987       -0.30653
C          3.28981       -1.48821        1.95979
H          3.66746       -0.54285        0.16902
H          2.30692       -3.19825        0.07209
H          2.76200       -2.20284       -1.32406
H          4.03829       -2.91114       -0.27209
H          2.55098       -2.17509        2.37512
H          4.29123       -1.91042        2.06684
H          3.22463       -0.52513        2.46783
H          2.02956       -0.84951        0.47904
H          4.71216        2.93527       -0.32659
H          4.39586        1.91839       -1.73895
H          2.31204        2.92753       -0.79322
H          2.27825        1.17551       -0.88370
H          2.53109        2.75963        1.54635
H          1.56483        1.47625        1.21062
H          5.82172        0.70230       -0.35216
H          4.93042        1.01260        0.98520
C          4.24609        1.99584       -0.65813
C          2.74850        2.01515       -0.36390
N          4.87347        0.82837       -0.01337
N          2.49527        1.86400        1.07108
