28
1sa1msa1eda_104.log	Energy: -975727.6959578
S          2.45131        0.30717       -0.06647
O          2.27894       -1.12279        0.31574
O          2.00533        0.59629       -1.42809
O          1.92183        1.25398        0.93401
O          4.04829        0.54515        0.02584
H          4.48757       -0.17060       -0.45352
S         -1.17658       -1.67603        0.10172
O         -1.40182       -0.61442       -0.89356
O         -1.32284       -1.26807        1.49310
O          0.17834       -2.40033       -0.15925
H          1.02708       -1.83112        0.03902
C         -2.28365       -3.01571       -0.25891
H         -3.29680       -2.63665       -0.12253
H         -2.11989       -3.33051       -1.28896
H         -2.07683       -3.82497        0.44070
H         -1.57760        1.12820        1.33261
H         -1.07633        2.79353        1.66142
H         -3.55108        2.50077        1.09175
H         -2.69816        3.72634        0.14930
H         -3.11204        1.00002       -0.88352
H         -3.91359        2.35823       -1.37119
H         -0.65831        1.16445       -0.75625
H         -0.39579        2.79586       -0.78583
C         -1.46478        2.12243        0.89326
C         -2.77901        2.64625        0.32123
N         -0.43568        1.98505       -0.17058
N         -3.05652        2.01199       -0.95886
H          0.51153        1.81263        0.25321
