35
1sa1msa1ma1eda_223.log	Energy: -1035882.8865483
S         -1.51853       -0.56264       -0.25855
O         -0.21632       -1.08724       -0.76795
O         -1.86987       -0.97845        1.09624
O         -1.53075        0.92039       -0.45680
O         -2.59386       -1.15704       -1.25153
H         -0.03252        1.36149       -0.91925
H         -3.46605       -1.33343       -0.72652
S          2.90248       -0.96451        0.23598
O          2.84770       -0.07463        1.38549
O          2.86947       -0.31024       -1.08519
O          1.80441       -2.07568        0.30652
H          0.90119       -1.72625       -0.06148
C          4.35902       -1.97289        0.32570
H          5.21485       -1.29816        0.29509
H          4.33284       -2.51918        1.26839
H          4.36343       -2.65273       -0.52534
N         -4.67980       -1.49535        0.29850
H         -5.37859       -2.20347        0.10013
C         -5.29489       -0.18406        0.53696
H         -6.01803       -0.18657        1.36058
H         -4.50338        0.53238        0.76745
H         -5.79780        0.14854       -0.37399
H         -4.14948       -1.78963        1.11583
H          0.06352        4.17893       -0.82140
H          1.05569        4.59859        0.57442
H          2.39905        3.08937       -0.65338
H          1.74272        2.10784        0.67475
H          0.82152        2.13666       -2.12732
H          1.55268        0.88765       -1.29383
H         -1.11140        4.07496        1.36610
H         -1.06985        2.55770        0.72826
C          0.48774        3.78028        0.12023
C          1.48427        2.67950       -0.21945
N         -0.49718        3.32120        1.08352
N          0.92459        1.71071       -1.20806
