38
1sa1msa1dma1eda_383.log	Energy: -1060531.9752070
S          1.49643       -0.52860       -0.41054
O          1.93992        0.78831        0.07329
O          0.38938       -0.51124       -1.37828
O          2.66621       -1.32187       -0.89759
O          1.00242       -1.35394        0.86832
H          3.93715       -0.71601       -0.39423
H          0.01517       -1.36141        0.92872
S         -2.76210       -1.12470        0.18951
O         -3.67667       -0.17478        0.79735
O         -1.66670       -1.66827        1.00010
O         -2.19950       -0.56628       -1.17232
H         -1.20350       -0.42174       -1.14388
C         -3.72204       -2.49799       -0.40531
H         -4.20241       -2.95161        0.46198
H         -4.46739       -2.11624       -1.10293
H         -3.04974       -3.20235       -0.89407
N          4.82101       -0.23459        0.02615
C          4.63423       -0.15447        1.49596
C          4.98602        1.08741       -0.62611
H          5.61762       -0.83211       -0.18911
H          3.73901        0.44018        1.67940
H          4.48270       -1.16135        1.88537
H          5.51053        0.30553        1.95636
H          4.06450        1.64588       -0.45948
H          5.84618        1.60581       -0.19830
H          5.12893        0.93365       -1.69579
H         -0.68212        3.57434        0.68836
H         -0.03532        2.54966       -0.61233
H         -2.10151        3.78485       -1.23253
H         -2.26072        2.02760       -1.40835
H         -4.10830        3.32328       -0.22572
H         -3.57434        1.98371        0.53056
H          0.00597        1.31273        1.34788
H         -1.57914        1.57211        1.67108
C         -0.86267        2.66282        0.09599
C         -2.16369        2.84260       -0.67599
N         -0.90385        1.45415        0.92083
N         -3.30344        2.92025        0.24008
