35
1sa1msa1ma1eda_11.log	Energy: -1035902.6757496
S         -2.81887       -0.37586       -0.01686
O         -2.68687       -1.42271        1.01709
O         -3.11696        0.96016        0.49471
O         -1.69580       -0.41706       -0.98955
O         -4.07967       -0.81597       -0.94845
H         -4.88685       -0.69767       -0.42974
S          2.63259       -0.51854       -0.20645
O          2.53741        0.80396       -0.88383
O          2.34102       -1.67027       -1.07868
O          1.80287       -0.55050        1.04302
C          4.33050       -0.65894        0.32043
H          4.96118       -0.61561       -0.56783
H          4.55367        0.16873        0.99358
H          4.45128       -1.61472        0.83055
N         -0.15163       -2.36666        0.37763
H         -0.29129       -2.06451       -0.59066
H          0.54381       -1.68778        0.76744
C          0.35610       -3.74985        0.46398
H          0.51387       -4.00173        1.51251
H         -0.37124       -4.43399        0.02700
H          1.29967       -3.79670       -0.07910
H         -1.07200       -2.21701        0.83226
H         -1.13446        2.22078        0.92033
H          0.39633        1.35488        1.22147
H          0.58315        3.77928        1.87496
H          1.70507        3.34080        0.57922
H         -0.79593        4.83043        0.22454
H          0.71240        5.23619       -0.26744
H         -0.69046        1.00714       -0.99770
H         -0.22217        2.60734       -1.34177
C         -0.07875        2.15267        0.64683
C          0.64646        3.47991        0.82074
N         -0.01429        1.77000       -0.78880
N          0.08451        4.45662       -0.11440
H          0.95249        1.43117       -1.00417
