40
1sa1msa2eda_305.log	Energy: -1095268.8557443
S         -1.25972       -1.87237       -0.12421
O         -0.57151       -1.04234       -1.16669
O         -0.74598       -3.21994       -0.01445
O         -0.86553       -1.08430        1.28691
O         -2.71065       -1.67645       -0.13986
H          0.11656       -1.01970        1.35429
H         -3.67554        0.14941        1.28363
S          2.71982       -1.04112        0.07281
O          3.31882       -2.35181        0.20049
O          1.80320       -0.59992        1.14628
O          1.98572       -0.87078       -1.31397
H          0.98132       -1.04000       -1.25929
C          3.98656        0.18729       -0.09973
H          3.52797        1.18118       -0.09969
H          4.64881        0.07031        0.75923
H          4.52527       -0.01892       -1.02482
H          1.59490        2.04942       -1.60208
H          0.11791        3.01904       -1.72457
H          2.04469        4.36255       -1.00410
H          0.76126        4.35470        0.21879
H          3.15084        3.94549        0.97020
H          2.07852        2.84209        1.49697
H         -0.27739        0.94116       -0.61481
H          0.78911        1.26039        0.52394
C          0.83926        2.59496       -1.01613
C          1.52501        3.73322       -0.27460
N          0.11843        1.72045       -0.08914
N          2.52463        3.21005        0.66211
H         -2.62414        0.75637       -1.22256
H         -3.67985        2.14884       -1.47623
H         -2.02656        2.40553        0.47734
H         -3.76440        2.60495        0.93792
H         -2.01057        0.23719        1.39319
H         -2.95294        1.08367        2.47986
H         -5.45210        0.78836       -0.97830
H         -4.40382       -0.49555       -0.88336
C         -3.45208        1.32648       -0.79099
C         -3.00480        1.92335        0.54709
N         -4.59615        0.44756       -0.56283
N         -2.89087        0.78793        1.50889
