36
1sa1msa2dma_14.log	Energy: -1025832.5858442
S         -2.28469       -0.16095        0.69925
O         -3.55465       -0.85180        0.64413
O         -1.35005       -1.10385        1.61988
O         -1.55265       -0.16223       -0.64336
O         -2.24280        1.19320        1.25432
H         -0.56272       -1.43550       -0.85203
H          0.41184        2.18477       -0.13140
S          2.18718        0.21977        0.59725
O          1.86889        1.66637        0.65675
O          2.22305       -0.29462       -0.80743
O          1.32143       -0.62209        1.45840
H         -0.44225       -0.72651        1.68139
C          3.84070        0.05643        1.23954
H          4.50833        0.64795        0.61312
H          3.83927        0.42961        2.26373
H          4.11478       -0.99820        1.21267
N          0.18905       -2.12803       -1.12052
C         -0.01045       -2.48533       -2.53751
C          0.18745       -3.27786       -0.19158
H          1.06756       -1.57545       -1.01365
H         -0.97791       -2.97647       -2.65110
H          0.00404       -1.57202       -3.13278
H          0.78806       -3.15300       -2.86555
H         -0.80121       -3.73812       -0.19400
H          0.94214       -3.99905       -0.51148
H          0.41466       -2.90681        0.80619
N         -0.32554        2.26986       -0.86279
C          0.35313        2.26700       -2.17500
C         -1.19618        3.43661       -0.61177
H         -0.87994        1.38322       -0.77389
H          0.92289        3.19056       -2.28928
H          1.03401        1.41425       -2.20207
H         -0.39568        2.19124       -2.96531
H         -0.59193        4.34554       -0.62060
H         -1.95656        3.48663       -1.39284
H         -1.67758        3.29257        0.35439
