36
1sa1msa1ma1tma_32.log	Energy: -1025818.8184245
S         -1.94594        1.45682       -0.21089
O         -0.50150        1.63315       -0.07049
O         -2.45603        0.58163        0.99924
O         -2.79433        2.61030       -0.31384
O         -2.21177        0.54827       -1.47484
H         -1.70631       -0.31895       -1.40259
S         -0.26386       -2.16095        0.05223
O          1.20820       -2.11216        0.02099
O         -0.89765       -1.69435       -1.21345
O         -0.83495       -1.45436        1.24450
H         -1.86173       -0.21935        1.12713
C         -0.73597       -3.86881        0.23189
H         -0.35496       -4.41378       -0.63185
H         -0.29535       -4.24698        1.15437
H         -1.82403       -3.91928        0.27236
N          1.47991        0.38223        1.87680
H          0.59413       -0.11759        1.79230
C          1.29166        1.63094        2.62330
H          0.85132        1.48231        3.61673
H          2.25429        2.13664        2.74954
H          0.63052        2.28071        2.04632
H          2.09630       -0.25079        2.37806
N          2.35987        0.73864       -0.71888
C          2.58820        2.20086       -0.65304
H          1.61778        2.69680       -0.67625
H          3.09575        2.43410        0.28399
H          3.20338        2.51353       -1.50021
C          3.62005       -0.03048       -0.60960
H          4.11713        0.24109        0.32300
H          3.36713       -1.09090       -0.59406
H          4.26621        0.20403       -1.45888
C          1.60640        0.36325       -1.94174
H          1.41079       -0.70678       -1.91395
H          0.66360        0.90606       -1.94466
H          2.20911        0.62897       -2.81470
H          1.82556        0.50584        0.18467
