38
1sa1msa1dma1eda_367.log	Energy: -1060533.1045107
S          0.13506       -0.85720       -0.85510
O          1.38274       -0.85176       -1.61322
O         -1.09669       -0.95910       -1.65820
O          0.14964       -1.85231        0.26166
O          0.11041        0.58722       -0.14569
H          1.56074       -2.07796        0.80373
H         -0.78337        0.74131        0.24898
S         -3.66093        0.40676        0.19004
O         -4.29960        1.46071       -0.57072
O         -2.39084        0.71320        0.86560
O         -3.47703       -0.89936       -0.67682
H         -2.54604       -0.95198       -1.07434
C         -4.79607       -0.20928        1.40873
H         -5.02470        0.62020        2.07849
H         -5.69546       -0.54574        0.89330
H         -4.31810       -1.02768        1.94556
N          2.55901       -2.22968        1.18491
C          3.01245       -0.97623        1.84265
C          3.42835       -2.66102        0.06273
H          2.48788       -2.97648        1.87463
H          3.15903       -0.21210        1.06642
H          2.24674       -0.66277        2.55322
H          3.95581       -1.16146        2.36079
H          3.37593       -1.89066       -0.70566
H          4.45092       -2.79235        0.42090
H          3.03991       -3.59551       -0.34231
H          1.56713        2.91447       -0.69820
H          2.54405        4.16395        0.06161
H          3.85662        2.97769       -1.58076
H          4.53112        2.72480        0.03444
H          2.76427        0.73933       -1.24240
H          4.39278        0.67527       -1.25489
H          1.59807        1.64147        1.18430
H          2.78703        2.51113        1.92619
C          2.40351        3.07854       -0.00980
C          3.67788        2.48113       -0.61328
N          1.99713        2.56745        1.29140
N          3.59783        1.02286       -0.72775
