36
1sa1msa1ma1tma_21.log	Energy: -1025822.7278461
S          2.34217       -0.91061       -0.05384
O          3.00083       -0.16603        1.02485
O          2.08993       -2.33338        0.26505
O          1.17091       -0.23686       -0.63899
O          3.39703       -0.92181       -1.30432
H          4.19881       -1.37489       -1.01079
S         -2.49556        0.15420       -0.20556
O         -1.87663        1.41178       -0.67702
O         -1.95988       -0.27252        1.12554
O         -2.46175       -0.94827       -1.19699
C         -4.22326        0.52333        0.06452
H         -4.65252        0.84924       -0.88323
H         -4.71733       -0.38158        0.41862
H         -4.29330        1.31417        0.81185
N         -0.65881       -2.51118        0.16884
H         -0.96796       -1.75698        0.81512
H         -0.97436       -2.12873       -0.73508
C         -1.32647       -3.79018        0.46864
H         -1.01213       -4.54163       -0.25543
H         -1.05235       -4.11343        1.47273
H         -2.40478       -3.64471        0.40521
H          0.38016       -2.56941        0.18537
N          0.73386        2.45498        0.09601
C          2.17371        2.71224       -0.17435
H          2.75792        1.86648        0.18707
H          2.31094        2.83564       -1.24882
H          2.46300        3.62599        0.34937
C         -0.10133        3.60104       -0.34553
H          0.03321        3.73813       -1.41860
H         -1.14345        3.36977       -0.14153
H          0.22952        4.49251        0.19186
C          0.49467        2.11370        1.52668
H         -0.53236        1.75985        1.62361
H          1.18748        1.31891        1.80440
H          0.67260        3.00665        2.13007
H          0.45841        1.60597       -0.42995
