32
1sa1msa1a1eda_319.log	Energy: -1011209.5304104
S         -2.76448       -0.02353       -0.49626
O         -2.13793        1.20395       -0.97477
O         -3.83465       -0.61881       -1.26053
O         -1.65499       -1.13928       -0.34343
O         -3.23395        0.25624        0.96908
H         -0.81834       -0.74458        0.02925
H         -3.94612       -0.45455        1.24515
S          1.11328        1.26046        0.04910
O          1.76302        1.07908       -1.23702
O          0.48006        0.07232        0.65117
O          0.02985        2.41799       -0.02308
H         -0.82292        2.05321       -0.38737
C          2.24408        1.94932        1.21403
H          3.08366        1.23987        1.24901
H          2.57021        2.91531        0.82735
H          1.73584        2.05239        2.17193
N         -5.05394       -1.54733        1.44279
H         -4.71132       -2.41343        1.84665
H         -5.35113       -1.74053        0.48858
H         -5.86372       -1.24649        1.97553
H          5.34272       -2.15719        0.15147
H          4.58287       -1.81093        1.72169
H          3.16964       -3.20551        0.25551
H          2.37624       -1.68448        0.68613
H          2.52467       -2.54226       -1.79694
H          2.63289       -0.94530       -1.49179
H          5.53781        0.17382        0.77091
H          4.60025        0.03566       -0.55132
C          4.52823       -1.60670        0.64607
C          3.19985       -2.12135        0.10295
N          4.63392       -0.15689        0.44788
N          3.08456       -1.84085       -1.32879
