38
1sa1msa1dma1eda_216.log	Energy: -1060548.2306390
S         -0.39778       -1.32742        0.02570
O         -0.47042        0.01783       -0.67917
O         -1.41904       -2.23607       -0.47296
O          0.98387       -1.80389        0.07718
O         -0.72546       -0.97838        1.56151
H         -1.61489       -0.55330        1.58889
S         -3.83330        0.61006        0.03009
O         -4.90377        1.58135        0.05680
O         -3.09407        0.34655        1.27239
O         -2.80635        1.06345       -1.08669
H         -1.90290        0.63093       -0.95302
C         -4.44323       -0.94355       -0.58140
H         -5.17138       -1.30631        0.14520
H         -4.91728       -0.76173       -1.54576
H         -3.59815       -1.63053       -0.66840
N          1.86327        1.27982       -0.08333
C          2.04238        2.62762       -0.65168
C          1.95817        1.23326        1.39416
H          0.93376        0.88616       -0.36723
H          3.00303        3.02740       -0.32281
H          2.01478        2.56044       -1.74006
H          1.23548        3.27732       -0.30864
H          2.97716        1.49938        1.67919
H          1.23278        1.92815        1.82058
H          1.71691        0.22036        1.71794
H          2.57056        0.61493       -0.49756
H          6.24694       -0.47976       -0.72546
H          6.12498       -0.40894        1.03266
H          4.71734       -2.19921        0.06188
H          3.78449       -1.03081        0.99861
H          3.93473       -1.03132       -1.93257
H          2.64282       -1.42822       -0.99206
H          5.93210        1.78034        0.33997
H          4.88402        1.43949       -0.85710
C          5.57058       -0.22656        0.10726
C          4.36518       -1.15884        0.08042
N          5.15478        1.18002        0.08638
N          3.47814       -0.84201       -1.04474
