36
1sa1msa2dma_58.log	Energy: -1025817.3519976
S          1.03208       -0.12562        0.69577
O          0.59608       -1.34512       -0.04457
O          0.03778        0.33155        1.67547
O          2.32185       -0.52273        1.49111
O          1.42350        0.95897       -0.25899
H          3.10514       -0.74148        0.82077
H          0.09183        1.95477       -0.34065
S         -2.90348       -1.02210       -0.26634
O         -4.14350       -1.57390       -0.76715
O         -2.71537        0.43386       -0.40032
O         -1.72542       -1.77311       -0.98427
H         -0.80075       -1.53930       -0.61332
C         -2.69171       -1.42993        1.45120
H         -3.52020       -0.96575        1.98795
H         -2.73220       -2.51504        1.54546
H         -1.73302       -1.02458        1.78636
N         -0.84820        2.42545       -0.28233
C         -1.15073        3.12186       -1.54782
C         -0.88029        3.27914        0.92355
H         -1.52009        1.64005       -0.17139
H         -0.40277        3.89705       -1.72182
H         -1.12795        2.39278       -2.35738
H         -2.14476        3.56720       -1.48739
H         -0.14500        4.07814        0.81478
H         -1.87871        3.70395        1.04044
H         -0.62639        2.65057        1.77711
N          4.23553       -0.94444       -0.19505
C          4.86330        0.36702       -0.38325
C          3.66688       -1.48224       -1.43755
H          4.91783       -1.60008        0.17489
H          4.08474        1.08097       -0.66386
H          5.30805        0.69613        0.55853
H          5.63716        0.35071       -1.16249
H          2.89290       -0.79611       -1.78856
H          4.42794       -1.60045       -2.22069
H          3.19331       -2.44425       -1.23508
