27
1sa1msa1a1ma_88.log	Energy: -951831.1263619
S         -1.50598       -1.31758        0.11890
O         -0.64666       -0.43578       -0.74154
O         -1.12976       -2.71804        0.09176
O         -1.73299       -0.68597        1.42758
O         -2.97764       -1.21742       -0.58942
H         -3.05777       -1.96906       -1.19145
S          2.59668        0.11535        0.00055
O          2.64323       -0.69303        1.20497
O          2.05120        1.47646        0.14592
O          1.85291       -0.62507       -1.17112
H          0.84449       -0.64567       -1.00767
C          4.21207        0.23604       -0.72245
H          4.84088        0.76018       -0.00234
H          4.58265       -0.77428       -0.89426
H          4.13593        0.79422       -1.65471
N         -0.44066        1.75290        1.44109
H         -0.83179        0.80478        1.62707
H          0.53006        1.66143        1.09245
H         -1.03716        2.15394        0.64510
H         -0.46928        2.32717        2.27752
N         -2.01179        2.28814       -0.75386
H         -1.86378        3.05161       -1.40583
C         -3.43846        2.13844       -0.43580
H         -4.05810        1.92302       -1.31348
H         -3.55845        1.31361        0.27008
H         -3.80426        3.05479        0.03510
H         -1.66148        1.43651       -1.19493
