33
1sa1msa1a1tma_80.log	Energy: -1001134.4102635
S          1.75821       -1.44150        0.08661
O          0.71214       -2.17645        0.79094
O          3.03950       -2.06259       -0.13997
O          1.21513       -1.01718       -1.33886
O          1.93094       -0.08653        0.84691
H          0.25690       -0.75590       -1.27709
H          2.77277        0.40754        0.47567
S         -2.36546       -0.95260       -0.18551
O         -3.06554       -2.06620       -0.78590
O         -1.31349       -0.29029       -0.97680
O         -1.75657       -1.34012        1.22638
H         -0.82467       -1.68541        1.12583
C         -3.52338        0.28393        0.33659
H         -4.03268        0.63648       -0.56086
H         -4.22926       -0.18424        1.02250
H         -2.97432        1.09294        0.81722
N          4.07739        0.96998       -0.18047
H          4.62392        0.14149       -0.40512
H          4.64157        1.57434        0.40835
H          3.88542        1.46123       -1.04852
N         -0.17838        3.27083        0.23504
C          1.00029        2.91072       -0.53079
H          1.15564        3.64094       -1.33156
H          1.87778        2.92752        0.12456
H          0.92638        1.90392       -0.98311
C         -0.36856        2.37517        1.36342
H          0.51058        2.40253        2.01360
H         -1.23113        2.70668        1.95172
H         -0.52201        1.32557        1.05825
C         -1.35720        3.31608       -0.61280
H         -2.22357        3.63043       -0.02093
H         -1.21260        4.05331       -1.40861
H         -1.58140        2.33988       -1.08136
