35
1sa1msa1ma1eda_22.log	Energy: -1035902.3711754
S          2.14661       -1.25657       -0.26976
O          1.47206       -2.35971       -0.98891
O          2.35870       -0.06387       -1.11980
O          1.56019       -0.96422        1.03984
O          3.63708       -1.80097        0.08793
H          4.07862       -2.03035       -0.74104
S         -2.68436        0.45065       -0.22899
O         -2.95090       -0.84923       -0.90154
O         -2.13695        1.48803       -1.14545
O         -1.84865        0.28501        0.98814
C         -4.27245        1.06595        0.30077
H         -4.90045        1.18549       -0.58221
H         -4.70739        0.33975        0.98763
H         -4.11978        2.02412        0.79756
N         -0.98214       -2.35382        0.29761
H         -0.77512       -1.54120        0.89412
H         -1.77396       -2.02441       -0.29401
C         -1.31337       -3.54676        1.09862
H         -1.54607       -4.37420        0.42880
H         -0.45696       -3.80603        1.72076
H         -2.17701       -3.32706        1.72611
H         -0.13554       -2.49917       -0.28999
H         -0.06485        2.86224        1.09621
H          0.57138        1.21041        1.24808
H          2.25814        2.89234        2.05572
H          2.83765        1.98499        0.65432
H          1.89910        4.75845        0.62774
H          3.25645        4.12395       -0.02843
H         -0.48136        1.77832       -0.94013
H          0.84611        2.82541       -1.17304
C          0.71093        2.17190        0.75517
C          2.10819        2.73189        0.98083
N          0.52137        1.97304       -0.70527
N          2.28032        3.93900        0.16711
H          1.12633        1.18594       -1.01846
