32
1sa1msa1a1eda_244.log	Energy: -1011227.6844225
S          0.36747       -0.91901       -0.29858
O         -0.80755       -1.49275       -0.98858
O          1.65148       -1.21056       -0.93211
O          0.23162        0.69285       -0.46200
O          0.34669       -1.17664        1.16134
H         -0.69519        0.94917       -0.23643
H          1.77517       -0.63543        1.89350
S         -3.55242        0.40414       -0.07886
O         -4.33956        0.85607       -1.20804
O         -2.33188        1.15672        0.25364
O         -3.20347       -1.12441       -0.19903
H         -2.24222       -1.28544       -0.50565
C         -4.57948        0.37075        1.37051
H         -4.91387        1.39316        1.54827
H         -5.42893       -0.28128        1.16738
H         -3.98736       -0.00113        2.20579
N          2.69297       -0.17865        2.11961
H          2.69673        0.77406        1.66947
H          3.46113       -0.64248        1.56344
H          2.87311       -0.15284        3.11737
H          2.89132        0.75051       -1.45239
H          3.94732        2.15855       -1.56693
H          5.39152        0.35302       -1.46423
H          5.46478        1.03264        0.16508
H          3.69937       -1.22952       -0.49940
H          5.22948       -1.42257        0.07424
H          3.26535        2.83513        0.51223
H          1.91462        2.02651        0.03766
C          3.60593        1.36136       -0.89469
C          4.81594        0.49702       -0.53929
N          2.89942        1.91890        0.27500
N          4.43389       -0.79298        0.06094
