24
1sa1msa2a_26.log	Energy: -927176.5709662
S          1.76521       -0.81063        0.06975
O          0.94793       -0.20170       -1.02039
O          3.17678       -0.45669       -0.04863
O          1.14965       -0.60075        1.39183
O          1.64455       -2.41669       -0.11829
H          2.20127       -2.67863       -0.86446
S         -2.44871        0.07964       -0.15195
O         -3.83510        0.06476       -0.55763
O         -1.88278        1.35158        0.32573
O         -1.59231       -0.44923       -1.36480
H         -0.59679       -0.35892       -1.20816
C         -2.17446       -1.14130        1.11339
H         -2.75828       -0.83692        1.98319
H         -2.52611       -2.09984        0.73182
H         -1.10753       -1.17302        1.34922
N          0.61030        2.12853        1.20646
H          0.89928        1.21036        1.58928
H          1.30899        2.38632        0.43727
H         -0.33192        1.96748        0.80094
H          0.57024        2.83787        1.93195
N          2.45204        2.43027       -0.85553
H          1.93593        2.05671       -1.64885
H          3.14840        1.71844       -0.63171
H          2.93318        3.27184       -1.15465
