30
1sa1msa1a1dma_12.log	Energy: -976509.0420589
S          2.27654       -0.62145       -0.28149
O          3.57661       -1.19115       -0.00913
O          1.34846       -1.89478       -0.66905
O          1.59600       -0.07568        0.97604
O          2.14094        0.36405       -1.35383
H          0.68601       -1.15394        1.71227
H         -0.46067        1.79078       -0.44221
S         -2.18122       -0.34169       -0.31449
O         -1.90179        0.96139       -0.96106
O         -2.15147       -0.24901        1.18053
O         -1.32246       -1.45197       -0.79633
H          0.45495       -1.59099       -0.95174
C         -3.85177       -0.76580       -0.76156
H         -4.51187        0.02357       -0.40218
H         -3.89813       -0.84501       -1.84776
H         -4.09769       -1.71955       -0.29483
N         -0.08724       -1.85126        1.94631
H         -0.99000       -1.33530        1.80734
H          0.00595       -2.24035        2.87916
H         -0.02403       -2.58197        1.23614
N          0.26187        2.19599        0.18946
C         -0.43667        2.72042        1.38153
C          1.09985        3.18072       -0.52625
H          0.84556        1.37522        0.47760
H         -1.05081        3.57473        1.09210
H         -1.07676        1.92871        1.77431
H          0.30134        3.02553        2.12495
H          0.46602        3.98742       -0.89825
H          1.84525        3.57952        0.16379
H          1.59875        2.66399       -1.34506
