39
1sa1msa1dma1tma_72.log	Energy: -1050472.8075619
S          1.14408        0.17706       -0.33726
O         -0.01982        0.59893       -1.14954
O          1.50247        1.13826        0.72131
O          0.95587       -1.20602        0.19955
O          2.35349        0.10871       -1.35073
H          3.19859       -0.09489       -0.78846
S         -2.53783       -1.49049       -0.03537
O         -3.10533       -0.98101       -1.27470
O         -2.31350       -0.51342        1.03578
O         -1.24159       -2.32880       -0.28531
H         -0.35435       -1.82270       -0.09883
C         -3.60407       -2.77571        0.57937
H         -4.57868       -2.32348        0.76510
H         -3.68061       -3.54819       -0.18566
H         -3.17567       -3.17488        1.49806
N          4.30971       -0.41361        0.31651
C          5.62190        0.17726        0.07033
C          4.34916       -1.85816        0.54896
H          3.87178        0.04408        1.11357
H          6.03631       -0.24072       -0.85181
H          5.51470        1.25635       -0.06117
H          6.33373       -0.01556        0.88613
H          4.72498       -2.35209       -0.35184
H          4.99927       -2.13056        1.39272
H          3.33352       -2.21251        0.73717
N         -1.51329        2.37343        0.15344
C         -2.94120        2.36051       -0.24277
H         -3.00437        2.25481       -1.32590
H         -3.41590        1.50021        0.22580
H         -3.40915        3.29346        0.08090
C         -1.33420        2.35954        1.62828
H         -1.86301        1.49585        2.02688
H         -0.26791        2.25726        1.83271
H         -1.73281        3.29041        2.03970
C         -0.76563        3.49199       -0.47167
H          0.28670        3.38422       -0.20740
H         -0.87459        3.42183       -1.55380
H         -1.16571        4.44042       -0.10554
H         -1.06020        1.50689       -0.24173
