26
1sa1msa1dma_09.log	Energy: -940998.5278194
S         -2.20902       -0.83808       -0.15582
O         -2.76407        0.53392       -0.11057
O         -3.11526       -1.87734       -0.60156
O         -0.86765       -0.79573       -0.79920
O         -1.81612       -1.20198        1.39465
H         -2.53599       -1.73190        1.76152
S          2.28037       -0.41244        0.03982
O          2.23998       -0.20603        1.47794
O          1.88895        0.73512       -0.79569
O          1.45670       -1.68098       -0.38551
H          0.47166       -1.44275       -0.51752
C          3.90275       -0.94017       -0.44540
H          4.59335       -0.14379       -0.16714
H          4.13498       -1.85740        0.09551
H          3.90618       -1.10489       -1.52216
N         -0.50726        2.05568       -0.12156
C         -0.51763        3.35213       -0.82639
C         -0.23089        2.14803        1.33127
H         -1.42450        1.55881       -0.23753
H          0.45594        3.83079       -0.71192
H         -0.72028        3.17601       -1.88260
H         -1.29788        3.98576       -0.40257
H          0.76244        2.57144        1.48159
H         -0.99397        2.77351        1.79609
H         -0.26473        1.14400        1.75428
H          0.21629        1.44330       -0.53785
