38
1sa1msa1dma1eda_102.log	Energy: -1060557.6678606
S          0.99009        1.52821       -0.78888
O          1.07459        0.13444       -1.57755
O          2.25251        2.18571       -1.09645
O         -0.24555        2.20950       -1.21492
O          0.88060        1.15032        0.66858
H         -1.52593        1.81099       -0.12837
H          2.28701        0.72648        1.12984
S         -1.81824       -1.67193       -0.16240
O         -2.71198       -1.01787       -1.13175
O         -1.89425       -1.04802        1.19293
O         -0.40898       -1.79096       -0.64412
H          0.38026       -0.52015       -1.26325
C         -2.37702       -3.35391        0.04407
H         -3.40412       -3.32487        0.40836
H         -2.32551       -3.84665       -0.92693
H         -1.72626       -3.84929        0.76474
N         -2.20750        1.62258        0.64005
C         -3.58331        1.78238        0.12537
C         -1.86371        2.49183        1.78195
H         -2.06010        0.61875        0.91151
H         -3.70641        2.79418       -0.26467
H         -3.72907        1.04181       -0.66143
H         -4.29173        1.60469        0.93657
H         -2.01071        3.53562        1.49919
H         -2.50339        2.24113        2.63005
H         -0.81607        2.31701        2.02579
H          4.23689       -1.38865        2.00323
H          2.54048       -1.19912        2.53242
H          2.91884       -2.94109        0.65280
H          1.69419       -1.72138        0.31683
H          4.11375       -2.11166       -1.10860
H          2.89003       -1.03761       -1.41694
H          3.78147        0.93630        1.95375
H          3.75079        0.36234        0.37505
C          3.23188       -1.08732        1.69518
C          2.76806       -1.87458        0.46061
N          3.28210        0.34213        1.29786
N          3.51471       -1.40536       -0.70451
