35
1sa1msa1ma1eda_42.log	Energy: -1035900.6578486
S         -2.40436        0.70805       -0.33445
O         -1.56206        0.65221       -1.72449
O         -3.26836        1.85762       -0.49691
O         -3.08191       -0.60172       -0.18850
O         -1.34386        0.84973        0.71669
H         -2.25223       -1.67581        0.70974
H         -0.08733        1.68956        0.11657
S          1.42582       -1.50101       -0.52792
O          0.47862       -2.64553       -0.45571
O          1.79644       -0.96980        0.80099
O          0.94638       -0.43278       -1.45739
H         -0.80527        0.02579       -1.65114
C          2.90930       -2.15045       -1.27277
H          2.65237       -2.55331       -2.25236
H          3.62629       -1.33402       -1.36648
H          3.29826       -2.93355       -0.62169
N         -1.62488       -2.36029        1.21602
H         -2.13476       -3.23079        1.34615
C         -1.13990       -1.79973        2.49926
H         -0.45948       -2.50939        2.96978
H         -0.61660       -0.87253        2.27271
H         -1.99084       -1.59308        3.14830
H         -0.81380       -2.53724        0.57156
H          2.02266        3.75019       -0.45811
H          0.65787        3.90452        0.68324
H          2.77406        3.36299        1.86287
H          1.59894        2.06315        2.05762
H          4.13771        1.76188        1.07383
H          2.91624        0.66970        0.86095
H          0.13694        2.52691       -1.28990
H          1.25296        1.40539       -0.82588
C          1.39016        3.21601        0.25414
C          2.25265        2.56213        1.32960
N          0.64644        2.16819       -0.48182
N          3.19952        1.63801        0.71885
