26
1sa1msa1dma_76.log	Energy: -940974.2998670
S          2.38219       -0.29222        0.08691
O          3.77966       -0.57918        0.24271
O          1.46835       -0.35004        1.21428
O          2.20816        1.20926       -0.46598
O          1.83936       -1.17459       -1.08831
H          2.93138        1.40609       -1.07960
H          0.83715       -1.10968       -1.13729
S         -1.72730       -1.29866       -0.06572
O         -2.17357       -2.66504       -0.20389
O         -0.72554       -0.78933       -1.02539
O         -1.14458       -1.07332        1.39941
H         -0.19421       -0.80658        1.36592
C         -3.10210       -0.18861       -0.07715
H         -3.58984       -0.31035       -1.04554
H         -3.77277       -0.49169        0.72756
H         -2.72454        0.83573        0.06018
N         -1.63320        2.71402        0.11247
C         -1.01378        2.73917       -1.20707
C         -0.65376        2.60025        1.18644
H         -2.18490        3.55472        0.24587
H         -0.53172        1.77450       -1.39150
H         -1.78107        2.88673       -1.97225
H         -0.25100        3.52835       -1.31577
H         -0.11753        1.65304        1.08784
H          0.09899        3.40536        1.17839
H         -1.16257        2.60280        2.15384
