36
1sa1msa1ma1tma_01.log	Energy: -1025830.6891403
S         -1.29910        1.46736       -0.67308
O         -0.88732        0.75212        0.58444
O         -0.80495        0.51305       -1.86361
O         -2.74005        1.55192       -0.85346
O         -0.54314        2.73644       -0.77779
H          0.86414        2.53972        0.11459
S          2.12709       -0.94931       -0.22361
O          1.16871       -2.03910        0.03828
O          2.47967       -0.15541        0.99013
O          1.72909       -0.05597       -1.34988
H          0.15882        0.29223       -1.72782
C          3.64553       -1.72760       -0.74836
H          3.98557       -2.38266        0.05407
H          3.43572       -2.30089       -1.65163
H          4.38119       -0.94904       -0.95019
N          1.61294        2.40792        0.84146
H          1.91634        1.39853        0.83414
C          1.06607        2.75835        2.17048
H          1.82040        2.57549        2.93596
H          0.76155        3.80505        2.17632
H          0.19771        2.12125        2.33332
H          2.41542        2.98097        0.59220
N         -1.98638       -1.66971        0.59980
C         -1.44494       -2.53225        1.67675
H         -0.39273       -2.71945        1.46158
H         -1.54073       -2.00548        2.62707
H         -2.01465       -3.46441        1.70890
C         -3.38073       -1.23733        0.86585
H         -3.41660       -0.75260        1.84181
H         -3.67050       -0.51316        0.10268
H         -4.03710       -2.11075        0.85319
C         -1.85777       -2.30716       -0.73713
H         -2.20147       -1.59814       -1.49018
H         -0.80354       -2.52903       -0.90148
H         -2.46343       -3.21698       -0.75181
H         -1.41498       -0.77547        0.58500
