30
1sa1msa2ma_90.log	Energy: -976490.2206591
S          2.09937       -1.13036       -0.23912
O          3.23671       -1.95074       -0.59557
O          1.65520       -0.12375       -1.21028
O          0.96611       -1.91446        0.33901
O          2.59833       -0.16682        1.01551
H          3.11610       -0.71607        1.61901
S         -2.27642       -0.61926       -0.03793
O         -1.99127       -1.31668       -1.27920
O         -2.60915        0.81128       -0.12695
O         -1.09513       -0.75763        0.97685
H         -0.23047       -1.28352        0.63399
C         -3.61021       -1.42430        0.81593
H         -4.50172       -1.31926        0.19698
H         -3.34724       -2.47455        0.94082
H         -3.74826       -0.93587        1.78016
N          1.19158        2.55852        1.24021
H          1.91333        1.84266        1.15526
C          0.27096        2.19238        2.32678
H          0.76689        2.08515        3.29878
H         -0.50872        2.95361        2.41525
H         -0.21037        1.24362        2.07772
H          1.65759        3.43685        1.44320
N         -0.16504        1.91149       -1.10227
H         -1.13329        1.66658       -0.83934
H          0.31324        2.34107       -0.25506
C         -0.10110        2.77209       -2.29801
H          0.94440        2.96709       -2.53703
H         -0.57594        2.26504       -3.13782
H         -0.61528        3.71278       -2.09939
H          0.36265        1.02806       -1.24857
