32
1sa1msa1a1eda_75.log	Energy: -1011235.7734713
S          2.43931       -1.18629        0.02769
O          3.75610       -1.77063       -0.12754
O          2.42297        0.20890        0.52417
O          1.49406       -1.35753       -1.10619
O          1.65361       -2.07192        1.17325
H          2.23192       -2.16938        1.94125
S         -2.69624       -0.15082        0.23334
O         -2.18309       -0.32164       -1.16823
O         -2.12159        1.06278        0.86811
O         -2.52920       -1.39074        1.02341
C         -4.44800        0.14574        0.10084
H         -4.90728       -0.71774       -0.38032
H         -4.84172        0.27808        1.10885
H         -4.59953        1.04741       -0.49239
N         -0.82366       -2.66002       -0.77535
H         -1.42730       -1.99444       -1.29420
H         -1.15968       -2.56697        0.19473
H         -0.90475       -3.61474       -1.11034
H          0.16118       -2.29932       -0.85630
H          1.18336        2.74058       -1.84493
H         -0.50570        3.16401       -1.47981
H          0.93829        4.73217       -0.31674
H          0.15398        3.71311        0.87679
H          2.22222        2.51047        1.14520
H          2.94089        3.40314       -0.02178
H         -0.10453        0.78160       -1.29441
H          1.05215        1.00913       -0.12379
C          0.43196        2.79824       -1.05271
C          0.90819        3.71240        0.08155
N          0.19375        1.42238       -0.55452
N          2.19732        3.40473        0.66722
H         -0.59027        1.39500        0.13623
