30
1sa1msa2ma_75.log	Energy: -976493.3323279
S          1.40393       -1.40844        0.19305
O          0.76918       -1.14513       -1.13310
O          2.62213       -0.60871        0.37710
O          0.45101       -1.34815        1.30306
O          1.84801       -2.96623        0.15757
H          2.50345       -3.08241       -0.54378
S         -2.46512        0.11175       -0.24504
O         -3.73188        0.60507       -0.74074
O         -1.51126        1.07027        0.32329
O         -1.77196       -0.66377       -1.43817
H         -0.80390       -0.87724       -1.26121
C         -2.74620       -1.16480        0.96056
H         -3.23672       -0.69651        1.81497
H         -3.39665       -1.91349        0.50849
H         -1.77773       -1.58273        1.24296
N          1.25213        1.84251       -1.35902
H          0.99511        0.88031       -1.58504
C          2.62683        2.10338       -1.80067
H          2.76847        1.96749       -2.87889
H          2.90875        3.12778       -1.54150
H          3.29126        1.41412       -1.27446
H          0.58591        2.44885       -1.82727
N          0.99320        1.58059        1.33845
H          1.09500        1.76971        0.26819
H          0.24566        0.87881        1.40325
C          0.64568        2.80453        2.08093
H          0.52853        2.58372        3.14221
H          1.43254        3.54726        1.94515
H         -0.29432        3.18529        1.68156
H          1.85669        1.12894        1.64433
