40
1sa1msa2eda_138.log	Energy: -1095288.1394428
S         -0.16230        1.63801        0.55656
O         -0.11650        0.83739       -0.83664
O         -0.85573        0.77378        1.52275
O          1.24114        1.94397        0.91197
O         -0.95029        2.84901        0.21371
H          2.35132        0.64841        0.74440
H         -2.47842        2.37486        0.42382
S         -0.10617       -2.70697        0.00687
O          0.57373       -3.98363       -0.19474
O         -1.42586       -2.54884       -0.63209
O          0.79211       -1.53214       -0.37756
H          0.13390       -0.12874       -0.67569
C         -0.36341       -2.49356        1.76356
H         -1.07184       -3.25659        2.08855
H          0.59335       -2.63079        2.26974
H         -0.75154       -1.48707        1.93093
H          3.70324       -0.44453       -1.63503
H          2.43254        0.79645       -1.55553
H          4.70296        1.84935       -1.83412
H          3.92834        2.31188       -0.31507
H          6.12561        0.39678       -0.60095
H          5.98436        1.65265        0.43734
H          2.23779       -0.91337        0.15827
H          3.73752       -0.33079        0.81232
C          3.31969        0.40105       -1.05818
C          4.38115        1.47400       -0.85421
N          2.89976       -0.10661        0.27030
N          5.46631        0.92454       -0.03887
H         -5.11297        1.63611       -0.74846
H         -3.77389        2.54454       -1.50058
H         -3.92749        0.12184       -2.31109
H         -2.37607        0.51189       -1.55486
H         -4.47023       -1.13467       -0.40654
H         -2.83495       -1.30022       -0.33333
H         -4.02789        2.50292        1.10210
H         -3.32709        0.98143        0.90126
C         -4.02668        1.70319       -0.85324
C         -3.44414        0.37773       -1.36062
N         -3.44403        1.93410        0.49557
N         -3.60082       -0.62203       -0.31205
