38
1sa1msa1dma1eda_253.log	Energy: -1060546.7343678
S         -0.02107       -1.26213        0.09700
O         -1.16497       -2.17031       -0.10029
O          1.29957       -1.91239       -0.00254
O         -0.01183       -0.26543       -1.18666
O         -0.13939       -0.40308        1.28866
H         -0.90713        0.14896       -1.24675
H          2.80773        0.13007        2.30335
S         -3.61107        0.30933       -0.17179
O         -4.94300        0.75755       -0.50537
O         -2.48384        0.79655       -0.98165
O         -3.61857       -1.27011       -0.19298
H         -2.68454       -1.64413       -0.16732
C         -3.25068        0.69487        1.52695
H         -3.27044        1.78183        1.61791
H         -4.02592        0.24316        2.14575
H         -2.25910        0.30004        1.76235
N          1.85102        1.90894       -0.14337
C          2.84991        2.75858       -0.79125
C          0.82721        2.66056        0.58695
H          1.38554        1.33336       -0.84516
H          3.41405        3.30403       -0.02692
H          3.53379        2.12008       -1.35465
H          2.39467        3.49502       -1.46764
H          1.29589        3.19799        1.41831
H          0.31613        3.39214       -0.05280
H          0.09498        1.95535        0.98520
H          4.03917       -2.18891       -0.12094
H          5.45031       -1.25172       -0.62008
H          4.83291       -0.86018        1.75285
H          4.81651        0.63160        0.78135
H          2.49061        0.77743        0.73006
H          2.31664       -0.88941        1.08060
H          4.04944       -0.77273       -2.32309
H          2.69098       -0.89486       -1.42737
C          4.39507       -1.17294       -0.34190
C          4.33162       -0.33621        0.93430
N          3.64592       -0.54045       -1.42368
N          2.91871       -0.07643        1.31392
