32
1sa1msa1a1eda_41.log	Energy: -1011239.8046549
S          1.91721       -1.48829       -0.23078
O          1.26303       -2.63278       -0.86730
O          2.07382       -0.30370       -1.09895
O          1.35822       -1.15083        1.10051
O          3.43296       -1.95656        0.14312
H          3.84223       -2.30061       -0.66236
S         -2.75955        0.21757       -0.05555
O         -1.93258       -0.56597       -1.00295
O         -2.23946        1.59993        0.13378
O         -2.97066       -0.50730        1.23088
C         -4.37712        0.40938       -0.78129
H         -4.98761        1.00295       -0.10061
H         -4.26034        0.91811       -1.73832
H         -4.80975       -0.58120       -0.92267
N         -1.06753       -2.42693        0.94369
H         -1.08423       -2.39848       -0.08189
H         -0.15307       -1.99990        1.21331
H         -1.85732       -1.81594        1.26264
H         -1.13308       -3.38234        1.28013
H          0.38822        2.81216        1.36283
H          1.01773        1.14327        1.40546
H          2.88711        2.81431        1.60730
H          3.01933        1.81372        0.15400
H          2.15963        4.61304        0.22922
H          3.26563        3.90054       -0.74376
H         -0.63213        1.70519       -0.38594
H          0.63198        2.62146       -1.08034
C          1.01676        2.08090        0.84776
C          2.43165        2.60298        0.63176
N          0.40414        1.82236       -0.47952
N          2.38298        3.75788       -0.26857
H          0.83565        0.97034       -0.88889
