30
1sa1msa1a1dma_44.log	Energy: -976498.0511364
S          1.95771       -1.05028       -0.00834
O          2.70333       -0.07947        0.78040
O          1.32378       -2.17166        0.68130
O          0.98461       -0.34960       -0.92867
O          3.06884       -1.69450       -1.00209
H          2.74097       -2.55458       -1.29686
S         -2.27207       -0.75677        0.01505
O         -3.67302       -0.77524       -0.35318
O         -1.72156        0.48103        0.58494
O         -1.43829       -1.13265       -1.27315
H         -0.46244       -0.88601       -1.15410
C         -1.91843       -2.08626        1.13848
H         -2.42848       -1.86170        2.07592
H         -2.30968       -3.00251        0.69620
H         -0.83532       -2.14769        1.27215
N         -1.85264        3.16642       -0.69393
H         -2.29749        3.98896       -0.30006
H         -2.28580        2.33980       -0.27978
H         -2.06559        3.15290       -1.68658
N          0.70006        2.22268        0.11131
C          0.69789        2.26930        1.59073
C          1.88476        2.85336       -0.50640
H          0.67562        1.23090       -0.20028
H          0.70793        3.31266        1.91254
H         -0.20585        1.77131        1.94067
H          1.57928        1.74218        1.95635
H          1.92362        3.90718       -0.22466
H          2.77628        2.32885       -0.16081
H          1.80418        2.75992       -1.58959
H         -0.18640        2.66543       -0.24331
