33
1sa1msa1ma1dma_147.log	Energy: -1001151.3190144
S         -0.45841       -1.16553       -0.48031
O          0.79590       -1.91256       -0.71221
O         -1.66119       -1.98397       -0.37528
O         -0.33059       -0.51073        1.00363
O         -0.59499       -0.00140       -1.39546
H          0.55310       -0.07685        1.06905
H         -1.74471        0.98651       -0.74038
S          3.34049        0.21396        0.31415
O          4.25887       -0.37012        1.27008
O          2.06136        0.73796        0.82345
O          3.06105       -0.76319       -0.88365
H          2.14627       -1.21899       -0.82624
C          4.16128        1.53267       -0.54877
H          4.43554        2.28087        0.19527
H          5.05128        1.12058       -1.02411
H          3.47414        1.94280       -1.28794
N         -3.67861       -0.52386        1.20452
H         -2.93761       -1.20416        1.02008
C         -4.92741       -0.99909        0.59747
H         -5.29524       -1.93439        1.03446
H         -5.70621       -0.23777        0.70037
H         -4.75226       -1.17361       -0.46686
H         -3.77376       -0.44290        2.21180
N         -2.48458        1.52536       -0.21748
C         -3.43624        2.10901       -1.17854
C         -1.82529        2.50244        0.66900
H         -2.98604        0.78656        0.38262
H         -2.92328        2.83702       -1.80971
H         -3.83613        1.30953       -1.80306
H         -4.25091        2.59829       -0.64042
H         -1.24291        3.20577        0.07133
H         -2.57954        3.04129        1.24643
H         -1.15999        1.95599        1.33713
