27
1sa1msa1a1ma_167.log	Energy: -951820.5902645
S         -1.48675       -0.46847       -0.21110
O         -1.38980       -1.36776        0.98793
O         -1.48196        0.95100        0.15687
O         -0.46963       -0.84862       -1.22274
O         -2.88069       -0.78698       -0.89839
H         -3.61331       -0.33991       -0.34392
S          3.09934        0.46254       -0.00568
O          2.71960       -0.69329        0.79915
O          3.96191        0.27421       -1.15874
O          3.86158        1.47586        1.00627
H          4.71727        1.70055        0.61306
C          1.65675        1.39063       -0.42923
H          1.04302        0.75523       -1.07545
H          1.09837        1.61048        0.48120
H          1.97884        2.29840       -0.93857
N          0.76293       -2.67665        0.33452
H         -0.10886       -2.28393        0.82262
H          0.90670       -3.66985        0.48272
H          0.55397       -2.44262       -0.64654
H          1.58227       -2.11684        0.61018
N         -4.59611        0.56504        0.61343
H         -5.52074        0.19063        0.79905
C         -4.66740        1.91034        0.02748
H         -5.19535        2.63326        0.66078
H         -3.64640        2.25708       -0.14346
H         -5.17512        1.85097       -0.93807
H         -4.09405        0.59171        1.49687
