24
1sa1msa2a_11.log	Energy: -927179.3460013
S         -2.17796       -0.08212        0.20341
O         -2.00761        1.23406        0.86133
O         -1.94154       -0.00609       -1.25193
O         -1.47374       -1.19722        0.85376
O         -3.73532       -0.47656        0.42398
H         -4.28018        0.29458        0.21832
S          2.40954        0.03307        0.12150
O          1.33600        0.46439       -0.85648
O          3.62384        0.83457        0.05079
O          2.59119       -1.44130       -0.02292
C          1.67949        0.27425        1.73607
H          1.52580        1.34324        1.89089
H          0.72761       -0.25899        1.77882
H          2.37971       -0.11280        2.47711
N          0.24296       -2.15936       -1.06349
H         -0.43872       -2.03154       -0.28586
H          0.08449       -1.36361       -1.68645
H          1.22631       -2.04813       -0.67840
H          0.10221       -3.04121       -1.54589
N         -0.35676        2.39619       -0.98420
H          0.46462        1.69857       -0.91055
H         -0.04610        3.36141       -1.03285
H         -0.89693        2.13613       -1.80884
H         -0.97690        2.20916       -0.16562
