35
1sa1msa1ma1eda_225.log	Energy: -1035883.2036602
S         -0.22111       -1.40443       -0.82593
O          0.03246       -0.38931       -1.84134
O         -0.15841       -0.80492        0.57059
O         -1.45010       -2.19554       -0.97153
O          0.95772       -2.47605       -0.87465
H          1.80609       -1.99209       -0.74599
S          3.07675        0.50404        0.30905
O          3.25488        1.57744       -0.64630
O          3.08669       -0.88179       -0.17512
O          1.77597        0.73511        1.17517
H          1.01429        0.10934        0.89915
C          4.32041        0.65125        1.57092
H          5.28674        0.53770        1.07872
H          4.23274        1.64019        2.02047
H          4.16441       -0.13420        2.30948
N         -2.86960       -0.99826        1.05726
H         -1.89628       -0.82305        1.35280
H         -3.28929       -0.06301        0.74372
C         -3.68037       -1.67959        2.08154
H         -4.67880       -1.86361        1.68422
H         -3.21404       -2.62877        2.34553
H         -3.75341       -1.04816        2.96745
H         -2.71048       -1.58128        0.21434
H         -3.31423        3.51323        0.07823
H         -2.73894        2.61936        1.49609
H         -0.89313        3.09840       -0.12779
H         -1.12376        1.37553        0.12145
H         -1.75545        2.84748       -2.28154
H         -1.19328        1.31279       -2.07843
H         -4.79451        1.70973        0.36772
H         -3.80129        1.31944       -0.88618
C         -2.90705        2.54971        0.41578
C         -1.58810        2.26794       -0.30800
N         -3.84307        1.44768        0.12931
N         -1.84456        2.00799       -1.72164
