30
1sa1msa1a1dma_83.log	Energy: -976493.1830811
S          2.16622       -0.89510       -0.36462
O          2.72976       -1.88864       -1.25883
O          2.28156        0.51586       -0.77209
O          0.77661       -1.20240        0.10173
O          3.04664       -0.95566        1.01172
H          3.43497       -1.83902        1.06482
S         -2.46682       -0.54995       -0.01621
O         -3.74593       -0.35587       -0.66175
O         -1.91374        0.54111        0.79708
O         -1.42143       -0.93168       -1.13845
H         -0.49503       -1.05987       -0.73273
C         -2.50575       -2.00462        1.00728
H         -3.19167       -1.80442        1.83102
H         -2.86180       -2.83590        0.39911
H         -1.49508       -2.19014        1.37417
N          0.78780        0.90182        2.41467
H          0.43948        0.07224        1.93875
H          0.26833        0.99934        3.28068
H          1.75521        0.70252        2.65166
N          0.17483        2.16145       -0.26396
C          0.53140        3.43886        0.38699
C         -0.43636        2.30628       -1.60322
H          1.02660        1.55913       -0.34931
H         -0.36428        4.05537        0.47991
H          0.93315        3.19925        1.37067
H          1.27603        3.95250       -0.22275
H         -1.37928        2.84707       -1.51130
H          0.25202        2.85031       -2.25088
H         -0.62268        1.31383       -2.01263
H         -0.46849        1.63078        0.34554
