38
1sa1msa1dma1eda_145.log	Energy: -1060548.3009138
S          0.87778        0.94765        0.05076
O          1.84031        1.90633       -0.49528
O         -0.18872        0.55869       -0.93213
O          1.65427       -0.38352        0.37737
O          0.23594        1.38786        1.31981
H          2.71122       -0.26589        0.10875
H         -1.37215        1.28750        1.22927
S         -1.70742       -2.42424       -0.01273
O         -2.47348       -3.58664       -0.40993
O         -2.38750       -1.33611        0.69755
O         -1.01824       -1.84406       -1.30881
H         -0.65341       -0.90979       -1.15326
C         -0.32768       -2.93679        0.98721
H         -0.73364       -3.31088        1.92790
H          0.19331       -3.73021        0.45096
H          0.32801       -2.07779        1.14335
N          4.05950        0.03080       -0.24992
C          4.78174       -1.08544       -0.85959
C          4.73118        0.60788        0.91769
H          3.89243        0.76949       -0.93141
H          4.84796       -1.90329       -0.13696
H          4.23072       -1.43966       -1.73305
H          5.79834       -0.80530       -1.16389
H          4.78137       -0.14553        1.70835
H          5.74911        0.94406        0.68381
H          4.14220        1.45441        1.27536
H         -3.93735        2.74272        0.74213
H         -2.52521        3.34336        1.65891
H         -2.63055        4.19807       -0.72490
H         -1.14272        3.32284       -0.36483
H         -2.93668        2.68771       -2.37809
H         -1.70853        1.72483       -1.82529
H         -2.90083        0.87806        1.82391
H         -2.59285        0.76035        0.21941
C         -2.84704        2.73220        0.81249
C         -2.22394        3.20697       -0.50265
N         -2.41769        1.33520        1.05397
N         -2.53505        2.25271       -1.55958
