38
1sa1msa1dma1eda_290.log	Energy: -1060545.0600156
S         -0.06236       -0.57178       -0.90163
O          1.03939       -0.86492       -1.81331
O         -1.26665       -1.41467       -1.08221
O          0.38336       -0.54463        0.52480
O         -0.49579        0.93083       -1.25464
H         -1.35197        1.13042       -0.80618
S         -3.93820        0.28997        0.22620
O         -4.98894        0.37643       -0.76795
O         -2.81702        1.23753        0.12792
O         -3.36693       -1.17277        0.33895
H         -2.51845       -1.29034       -0.21938
C         -4.65342        0.45726        1.84372
H         -5.11319        1.44493        1.88706
H         -5.40675       -0.32139        1.96277
H         -3.86251        0.35975        2.58627
N          2.99857       -1.26171        0.61555
C          3.23175       -1.41554        2.06433
C          3.19057       -2.49455       -0.17505
H          2.00894       -0.92999        0.49657
H          4.25456       -1.75701        2.23744
H          3.06958       -0.44259        2.53063
H          2.52383       -2.14174        2.46644
H          4.22474       -2.83103       -0.07738
H          2.51092       -3.26370        0.19530
H          2.94475       -2.27399       -1.21326
H          3.63487       -0.50216        0.26737
H          4.52274        3.02381       -0.16935
H          4.37036        2.00399       -1.60657
H          2.16153        2.86140       -0.81825
H          2.25413        1.11506       -0.90628
H          2.22614        2.71105        1.52878
H          1.36512        1.37445        1.13138
H          5.76248        0.84902       -0.14916
H          4.79379        1.11541        1.14133
C          4.14026        2.06078       -0.53862
C          2.62810        1.98178       -0.35522
N          4.79355        0.92759        0.14203
N          2.28079        1.81313        1.05926
