42
1sa1msa2tma_24.log	Energy: -1075136.6757127
S         -0.76527        0.46482       -0.62941
O         -0.92032       -1.01195       -0.44254
O          0.16684        0.82434       -1.70824
O         -2.18309        0.98597       -1.05406
O         -0.39862        1.12403        0.65445
H         -2.93855        0.49101       -0.49036
H          1.22851        1.61579        0.34842
S          2.30426       -1.97568        0.23306
O          3.25173       -2.97818        0.67595
O          2.50450       -0.58852        0.66189
O          0.86852       -2.46138        0.66180
H          0.15020       -1.83999        0.29448
C          2.21707       -1.97010       -1.54735
H          3.20745       -1.69669       -1.91461
H          1.95359       -2.97509       -1.87681
H          1.46947       -1.23610       -1.85857
N          1.97519        2.35100        0.28891
C          1.23743        3.60789        0.01180
H          0.72636        3.49546       -0.94445
H          0.49721        3.75747        0.79702
H          1.94553        4.43904       -0.02030
C          2.64548        2.37152        1.61149
H          1.89195        2.55958        2.37675
H          3.09789        1.39438        1.77725
H          3.40040        3.16105        1.61931
C          2.91494        2.02475       -0.81244
H          3.41368        1.08939       -0.56662
H          2.33156        1.89915       -1.72399
H          3.63554        2.84064       -0.91053
N         -4.00199       -0.23688        0.28310
C         -3.49727       -0.41541        1.64838
H         -2.55609       -0.96675        1.61101
H         -3.30296        0.56271        2.09439
H         -4.21992       -0.96239        2.27264
C         -5.23174        0.55389        0.26670
H         -5.04793        1.52278        0.73753
H         -5.54139        0.72383       -0.76753
H         -6.04772        0.04644        0.80395
C         -4.18278       -1.52964       -0.38381
H         -4.53615       -1.36311       -1.40442
H         -3.21819       -2.03842       -0.43043
H         -4.91206       -2.15694        0.15072
