32
1sa1msa1a1eda_277.log	Energy: -1011225.2131333
S         -1.03197       -1.79762        0.05067
O         -0.20270       -1.44032        1.23251
O         -2.45415       -1.54159        0.24939
O         -0.46105       -1.26747       -1.20409
O         -0.84124       -3.39690       -0.14858
H         -1.26859       -3.84695        0.59308
S          2.55328        0.52407       -0.14435
O          3.80304        1.18373        0.16539
O          1.52070        1.26836       -0.86394
O          1.97071       -0.00065        1.23676
H          1.13032       -0.54219        1.13905
C          2.86151       -0.98228       -1.04190
H          3.33461       -0.70090       -1.98352
H          3.53041       -1.60242       -0.44561
H          1.90202       -1.47177       -1.22215
N         -0.68305        1.19226        2.78437
H          0.31808        1.36776        2.77235
H         -0.80505        0.22558        2.48680
H         -0.99369        1.26078        3.74763
H         -2.80144        2.44020       -2.12362
H         -3.02751        0.67748       -1.93528
H         -3.86210        2.08237        0.06200
H         -2.70981        0.81363        0.46808
H         -2.22590        3.65919        0.58868
H         -1.48440        2.39489        1.39783
H         -0.67153        1.63189       -2.56920
H         -0.62744        1.99281       -0.93906
C         -2.52214        1.55964       -1.53932
C         -2.81613        1.77382       -0.04556
N         -1.05364        1.37840       -1.66180
N         -1.85512        2.72232        0.49812
H         -0.75818        0.39524       -1.46200
