28
1sa1msa1eda_154.log	Energy: -975722.4400703
S         -0.97409        1.62218        0.01402
O         -2.46275        1.67596       -0.01791
O         -0.30134        2.88471        0.26714
O         -0.51067        0.49012        0.85398
O         -0.63948        1.17227       -1.51572
H         -2.44078       -1.06925        1.35634
H          0.31601        0.97591       -1.56095
S          2.47951       -0.44042       -0.02907
O          1.87139       -1.70923        0.31119
O          2.04116        0.28789       -1.21882
O          4.06440       -0.71634       -0.25343
H          4.31537       -0.33773       -1.10846
C          2.50925        0.62242        1.38701
H          1.46071        0.80933        1.63306
H          3.03085        0.09490        2.18572
H          3.01895        1.54479        1.11013
H         -1.34458       -1.14121       -1.14603
H         -1.90140       -2.77122       -1.53294
H         -3.79435       -1.08155       -1.21148
H         -3.89445       -2.48509       -0.11234
H         -2.97206        0.29655        0.48811
H         -4.08164       -0.68947        1.33599
H         -1.11515       -3.47420        0.51647
H         -0.26655       -2.06472        0.55396
C         -1.86561       -2.01293       -0.74308
C         -3.30322       -1.60876       -0.39160
N         -1.19609       -2.46645        0.47171
N         -3.22704       -0.70534        0.78653
