27
1sa1msa1a1ma_38.log	Energy: -951834.3476190
S         -1.74790        0.42557       -0.17816
O         -1.37720       -1.03397       -0.13611
O         -1.68729        1.04582        1.15101
O         -0.95540        1.16385       -1.18625
O         -3.23540        0.44697       -0.70406
H          0.20688        1.94643       -0.28206
H         -3.74721       -0.31211       -0.25971
S          2.11212       -0.90586       -0.03070
O          1.80546       -0.24857        1.25360
O          2.53193       -0.00616       -1.09855
O          0.93923       -1.82804       -0.46067
H         -0.03451       -1.42680       -0.32389
C          3.37595       -2.12258        0.23933
H          4.27663       -1.58849        0.54285
H          3.04189       -2.80319        1.02153
H          3.53939       -2.65097       -0.69969
N         -4.26613       -1.69907        0.49676
H         -4.88723       -2.30294       -0.03030
H         -4.64804       -1.57572        1.42820
H         -3.35925       -2.15504        0.57737
N          0.81565        2.27662        0.51355
H          0.17862        2.72444        1.17188
C          1.92907        3.13328        0.05748
H          2.52296        3.45254        0.91412
H          2.54274        2.54119       -0.62133
H          1.52653        4.00198       -0.46283
H          1.16564        1.40723        0.96077
