33
1sa1msa1a1tma_19.log	Energy: -1001161.7469605
S          2.25995        0.89472       -0.05714
O          0.96039        1.52851        0.16481
O          2.18968        0.08007       -1.40612
O          3.44435        1.70526       -0.09326
O          2.46249       -0.21376        1.04839
H          1.65125       -0.80516        1.11679
S         -0.48820       -2.03756       -0.05008
O         -1.87350       -1.54612        0.03745
O          0.31567       -1.70259        1.16952
O          0.20987       -1.61341       -1.29716
H          1.42289       -0.57234       -1.39189
C         -0.55624       -3.81612       -0.10862
H         -1.12799       -4.10162       -0.99178
H          0.46416       -4.19443       -0.17017
H         -1.04562       -4.16575        0.80042
N         -0.99228        0.79523        2.19810
H         -0.15743        1.36552        2.30221
H         -0.66875       -0.16683        2.08340
H         -1.52752        0.84561        3.05841
N         -2.07103        1.59322       -0.25374
C         -1.83894        3.04017       -0.03261
H         -2.14091        3.28993        0.98533
H         -0.77375        3.23576       -0.15622
H         -2.42553        3.61651       -0.75147
C         -1.58900        1.16721       -1.59254
H         -0.52784        1.39750       -1.66508
H         -1.73709        0.09380       -1.69078
H         -2.15677        1.71149       -2.35182
C         -3.48728        1.21421       -0.04051
H         -3.56917        0.13462       -0.16456
H         -3.77085        1.48826        0.97658
H         -4.11599        1.74139       -0.76171
H         -1.54075        1.11555        0.53395
