40
1sa1msa2eda_302.log	Energy: -1095268.5029522
S         -1.00508       -0.55255       -1.05239
O          0.30974       -0.59140       -1.73059
O         -2.07695       -1.33214       -1.65484
O         -0.79237       -1.22173        0.39433
O         -1.41002        0.86336       -0.78790
H          0.10494       -1.00046        0.75341
H         -2.88804        0.99888       -0.40530
S          2.88129       -1.31067        0.48768
O          3.61470       -2.34696        1.17885
O          1.72044       -0.69694        1.15567
O          2.40677       -1.90169       -0.90207
H          1.59482       -1.42654       -1.25197
C          3.98560       -0.00340        0.02083
H          4.40327        0.40389        0.94319
H          4.77460       -0.44118       -0.59106
H          3.41357        0.75773       -0.52485
H         -5.69991       -0.04854       -0.18905
H         -4.33010       -0.72398       -1.13373
H         -4.75905       -1.98199        1.03344
H         -3.13084       -1.32370        0.89123
H         -5.23451       -0.34247        2.65112
H         -3.62106       -0.45432        2.90502
H         -4.36330        1.79531       -0.70491
H         -3.97280        1.35820        0.87111
C         -4.62205       -0.23339       -0.20489
C         -4.18215       -1.05101        1.00977
N         -3.92878        1.08383       -0.12266
N         -4.32676       -0.22932        2.21448
H          0.51418        1.71207        0.92418
H          0.19662        3.39521        1.37793
H         -0.02276        3.23366       -0.99799
H          1.48277        4.11708       -0.65998
H          1.23837        1.34064       -1.54337
H          2.07154        2.55331       -2.24484
H          2.23606        2.40196        2.40074
H          2.91156        2.43741        0.91774
C          0.91206        2.73624        0.87077
C          0.99509        3.13803       -0.59553
N          2.21873        2.88539        1.50905
N          1.80123        2.16733       -1.34656
