30
1sa1msa1a1dma_92.log	Energy: -976491.9150162
S          1.77968        0.80478        0.07830
O          3.04878        1.41977        0.41298
O          0.71454        1.61531       -0.48430
O          2.02700       -0.37995       -0.93698
O          1.27290        0.08851        1.37590
H          2.94613       -0.79742       -0.73172
H          0.34235       -0.34370        1.25484
S         -1.67296       -1.61131        0.03418
O         -2.86341       -2.36802        0.40463
O         -1.00738       -0.95546        1.21556
O         -1.89683       -0.59001       -1.04024
H         -2.01691        0.87013       -0.49708
C         -0.47350       -2.74283       -0.64327
H         -0.24564       -3.48585        0.12167
H         -0.92225       -3.21719       -1.51637
H          0.41386       -2.17333       -0.92390
N          4.43352       -1.22431       -0.27131
H          4.46560       -1.95076        0.43672
H          4.74567       -0.35419        0.15557
H          5.08226       -1.47098       -1.01135
N         -2.38457        1.82265       -0.16474
C         -2.07394        2.85511       -1.18072
C         -1.88223        2.13029        1.19792
H         -3.39367        1.67953       -0.12248
H         -0.99052        2.93872       -1.25280
H         -2.48223        2.53244       -2.13870
H         -2.51573        3.80766       -0.88201
H         -0.81110        2.30872        1.12234
H         -2.39609        3.01378        1.58154
H         -2.05883        1.26180        1.83248
