28
1sa1msa1eda_119.log	Energy: -975726.3901859
S         -1.85794       -1.28392       -0.05826
O         -0.69758       -2.19211        0.06539
O         -2.00027       -0.57679       -1.32476
O         -3.13724       -2.28187       -0.00383
O         -1.99273       -0.37941        1.11560
H         -2.95595       -2.96352        0.65726
H         -2.10204        1.10980        0.50105
S          2.38129       -0.39067        0.04258
O          1.81219        0.15011        1.27131
O          2.29905        0.45013       -1.15045
O          1.81209       -1.82750       -0.25020
H          0.80600       -1.89577       -0.12617
C          4.08380       -0.82167        0.30747
H          4.61718        0.10968        0.49947
H          4.14126       -1.48857        1.16695
H          4.46183       -1.30361       -0.59371
H         -1.73383        4.06926        0.26152
H         -1.62614        3.07304        1.73643
H          0.66050        3.72101        0.79204
H          0.42217        1.97617        0.90203
H          0.50529        3.53669       -1.53755
H          0.96036        1.97532       -1.25365
H         -3.11414        2.24662       -0.21698
H         -1.64014        1.87376       -0.92408
C         -1.39957        3.11151        0.66958
C          0.08871        2.87995        0.38244
N         -2.13916        2.03001       -0.02691
N          0.25665        2.68346       -1.05242
