36
1sa1msa2dma_79.log	Energy: -1025814.9244898
S         -0.37338       -1.80985       -0.19901
O         -1.45301       -2.35405       -1.01565
O          0.53285       -2.74704        0.46269
O          0.46923       -0.80729       -0.99528
O         -1.03922       -0.92437        0.94208
H         -1.98715       -0.58798        0.58966
S          0.78669        2.43303       -0.11746
O          0.76941        3.83373       -0.47953
O          2.07858        1.75470        0.03760
O         -0.08594        1.65077       -1.17347
H          0.09617        0.64074       -1.13384
C         -0.11791        2.20164        1.39852
H         -1.08287        2.69738        1.28922
H         -0.24943        1.12928        1.56221
H          0.45955        2.66674        2.19848
N          2.94256       -0.86877        0.00370
C          2.90282       -0.95094        1.48301
C          3.60576       -2.01908       -0.64648
H          1.94930       -0.81589       -0.36436
H          3.92065       -1.02935        1.86957
H          2.42832       -0.04396        1.85508
H          2.30913       -1.82436        1.75272
H          4.63544       -2.10128       -0.29416
H          3.03807       -2.91480       -0.39149
H          3.58575       -1.87132       -1.72618
H          3.35422        0.02473       -0.27193
N         -3.29271       -0.21695       -0.05765
C         -3.48808        1.21951       -0.25350
C         -4.40447       -0.87638        0.62856
H         -3.14103       -0.67647       -0.95451
H         -3.57423        1.70292        0.72467
H         -2.62219        1.63516       -0.77414
H         -4.39754        1.44315       -0.82684
H         -4.49410       -0.46933        1.63986
H         -5.36047       -0.73090        0.10827
H         -4.19363       -1.94511        0.70069
