33
1sa1msa1ma1dma_215.log	Energy: -1001137.9973775
S         -0.99096        0.99817        0.88224
O         -2.02857        1.97731        1.12633
O          0.36220        1.31823        1.37848
O         -1.37469       -0.40438        1.26739
O         -0.87900        0.93246       -0.73799
H         -2.52196       -0.86823        0.36878
H         -0.14582        0.31210       -0.96105
S          2.01153       -1.40091       -0.03000
O          3.19828       -2.04890       -0.53581
O          0.93148       -1.07657       -0.97703
O          2.46342       -0.08012        0.70827
H          1.67110        0.48270        0.97210
C          1.29523       -2.37258        1.27652
H          1.00638       -3.32976        0.84009
H          2.05566       -2.51569        2.04411
H          0.42366       -1.83643        1.65958
N          2.32632        3.08808       -0.52233
H          3.17595        2.70273       -0.12455
C          2.02387        2.44408       -1.79503
H          1.93134        1.34748       -1.75061
H          1.08479        2.84594       -2.18611
H          2.80885        2.68174       -2.51939
H          1.58387        2.91934        0.14891
N         -3.28533       -1.15245       -0.34301
C         -2.62278       -1.82323       -1.48832
C         -4.05289        0.06436       -0.71953
H         -3.90094       -1.80963        0.13446
H         -1.93169       -1.11201       -1.93857
H         -2.06079       -2.68087       -1.11977
H         -3.37219       -2.14006       -2.21533
H         -3.36351        0.76217       -1.19408
H         -4.85867       -0.21038       -1.40215
H         -4.44752        0.52330        0.18630
