40
1sa1msa2eda_225.log	Energy: -1095278.1536901
S          0.05442       -1.57759        0.21624
O         -1.02399       -2.41888        0.71835
O          1.28402       -2.30685       -0.17396
O         -0.36174       -0.60408       -0.82699
O          0.46243       -0.67113        1.49926
H         -1.39653        0.56273       -0.21266
H          1.27202       -0.16218        1.26166
S          3.74725        0.10667       -0.16823
O          4.83853       -0.27913        0.70330
O          2.56087        0.71926        0.45911
O          3.29299       -1.07513       -1.09225
H          2.46827       -1.57804       -0.73067
C          4.35674        1.23632       -1.39649
H          4.72250        2.11700       -0.86784
H          5.17098        0.74530       -1.92945
H          3.54179        1.49052       -2.07316
H         -6.03999       -0.81982       -0.69554
H         -5.17706       -0.61395       -2.21827
H         -4.17300       -2.38393       -0.83847
H         -3.02906       -1.08877       -1.17923
H         -4.46788       -1.37042        1.36554
H         -2.87854       -1.66839        1.06811
H         -5.45840        1.52644       -1.47904
H         -5.11471        1.18788        0.07344
C         -5.09419       -0.46617       -1.13749
C         -3.94543       -1.32979       -0.63036
N         -4.86195        0.96235       -0.88384
N         -3.67591       -1.08848        0.79474
H         -2.11917        2.56087        1.87451
H         -0.91915        1.25211        2.03939
H          0.22277        3.37913        1.46174
H          0.40467        2.18507        0.18032
H         -1.30628        4.55248        0.09611
H         -0.31343        3.94952       -1.05418
H         -2.79113        0.49526        0.69026
H         -2.54944        1.77141       -0.37208
C         -1.37760        1.95626        1.34343
C         -0.32235        2.83236        0.68120
N         -2.07904        1.16880        0.30759
N         -0.95791        3.69422       -0.31633
