24
1sa1msa2a_80.log	Energy: -927161.6091826
S         -2.04106        0.33932        0.53824
O         -3.33528       -0.11983        1.00405
O         -1.08779        0.92503        1.46248
O         -1.28119       -0.89120       -0.12852
O         -2.28577        1.31004       -0.65832
H         -1.96713       -1.50009       -0.58613
H         -1.39944        1.86202       -0.88275
S          2.64343       -0.36685       -0.11832
O          2.72380       -1.45934       -1.06434
O          2.28126        0.96181       -0.60603
O          4.07666       -0.20194        0.63561
H          4.63187        0.39302        0.11074
C          1.66797       -0.82761        1.28208
H          1.62490        0.01283        1.97304
H          0.67063       -1.05205        0.89904
H          2.12880       -1.70689        1.73220
N         -3.26369       -2.32961       -1.12704
H         -3.97509       -1.96411       -0.49693
H         -3.23182       -3.33867       -1.02844
H         -3.53978       -2.11018       -2.07840
N         -0.14222        2.63718       -1.12349
H         -0.07838        3.07990       -2.03466
H          0.66534        2.02057       -1.01070
H         -0.06783        3.36025       -0.41393
