26
1sa1msa1dma_01.log	Energy: -941006.8902490
S         -2.28622       -0.23398        0.00229
O         -1.68211       -0.79218        1.34685
O         -3.71311       -0.20966        0.12491
O         -1.58433        1.01385       -0.32691
O         -1.90472       -1.31340       -1.07535
H         -0.05393        1.70715       -0.14484
H         -0.90896       -1.41196       -1.15223
S          1.63411       -1.05789       -0.09271
O          2.47750        0.06096       -0.58461
O          0.70582       -1.59436       -1.11675
O          0.91629       -0.66880        1.16308
H         -0.67622       -0.77833        1.31964
C          2.73792       -2.38377        0.33396
H          3.27067       -2.67851       -0.57015
H          3.43079       -2.02022        1.09255
H          2.13816       -3.20972        0.71621
N          0.85579        2.20932       -0.07826
C          1.06667        2.60850        1.33068
C          0.86283        3.32185       -1.05025
H          1.57414        1.49286       -0.33640
H          0.26024        3.27479        1.63977
H          1.06276        1.70128        1.93522
H          2.02882        3.11481        1.42051
H          0.06545        4.02294       -0.80090
H          1.82961        3.82580       -1.01463
H          0.69434        2.91304       -2.04628
