39
1sa1msa1dma1tma_43.log	Energy: -1050477.0171339
S          1.15378        0.41944       -0.15812
O          1.14243        1.54602        0.78781
O          1.38958       -0.89696        0.44877
O         -0.10984        0.44100       -0.99267
O          2.28654        0.67169       -1.22865
H          3.20432        0.35722       -0.84518
S         -2.36394       -1.87508        0.05369
O         -3.51953       -2.70013       -0.23377
O         -2.56605       -0.57915        0.70920
O         -1.60482       -1.63670       -1.31431
H         -0.95073       -0.87106       -1.22503
C         -1.18952       -2.79792        1.01680
H         -1.63780       -2.96041        1.99775
H         -1.01737       -3.74684        0.50879
H         -0.26819       -2.21325        1.08511
N          4.53420       -0.19826       -0.23371
C          4.54579       -1.64203       -0.48973
C          4.54911        0.12129        1.19825
H          5.33564        0.23383       -0.68425
H          3.61856       -2.06619       -0.09691
H          4.57574       -1.81876       -1.56725
H          5.40291       -2.14211       -0.01783
H          3.64619       -0.29219        1.65377
H          5.43084       -0.29310        1.70612
H          4.52941        1.20521        1.32969
N         -1.76959        2.31640        0.02555
C         -1.01364        3.48600       -0.48842
H         -0.02608        3.47543       -0.02721
H         -0.90869        3.38383       -1.56880
H         -1.55805        4.40071       -0.24284
C         -3.09819        2.18303       -0.62051
H         -2.95369        2.09756       -1.69816
H         -3.57190        1.27844       -0.24117
H         -3.69652        3.06765       -0.39016
C         -1.86657        2.33636        1.50788
H         -2.38939        1.43606        1.82670
H         -0.85266        2.33501        1.90784
H         -2.41060        3.23398        1.81223
H         -1.20026        1.47556       -0.25170
