27
1sa1msa1a1ma_183.log	Energy: -951816.9681418
S          1.85712       -0.56952        0.43865
O          3.08256       -1.23899        0.80615
O          0.78725       -0.43637        1.42135
O          2.17108        0.87567       -0.07372
O          1.29843       -1.32330       -0.82948
H          3.12252        0.89143       -0.50221
H          0.35568       -1.04811       -1.01467
S         -2.32178       -0.82303       -0.25178
O         -2.93016       -2.12772       -0.39284
O         -1.17837       -0.49264       -1.12422
O         -1.86770       -0.59561        1.25472
H         -0.87814       -0.54364        1.32745
C         -3.54038        0.44539       -0.43289
H         -3.92989        0.36091       -1.44845
H         -4.32790        0.24363        0.29410
H         -3.06517        1.41926       -0.25305
N          4.59172        0.73925       -1.02689
H          4.90619       -0.10543       -0.55348
H          5.21617        1.49792       -0.77245
H          4.66770        0.58717       -2.02773
N         -1.86061        3.21817        0.21234
H         -2.00027        3.95974       -0.46584
C         -0.49458        2.69232        0.13045
H          0.29284        3.44924        0.24758
H         -0.34895        1.93602        0.90452
H         -0.35467        2.19479       -0.83193
H         -2.03410        3.62128        1.12701
