38
1sa1msa1dma1eda_252.log	Energy: -1060545.8830759
S         -0.13981       -0.55025       -0.77634
O         -1.32937       -0.54486       -1.62218
O          0.58969        0.75162       -0.75852
O         -0.41804       -1.02015        0.60892
O          0.84653       -1.60771       -1.44599
H          1.73689       -1.53106       -1.02638
S          3.84502        0.08103        0.21638
O          4.84119        0.63205       -0.67956
O          3.19683       -1.18348       -0.15956
O          2.73536        1.14717        0.55694
H          1.87119        0.97762        0.03914
C          4.56891       -0.13777        1.82412
H          5.37357       -0.86525        1.71304
H          4.96305        0.82319        2.15447
H          3.80066       -0.50567        2.50316
N         -3.10936       -1.37515        0.62177
C         -3.45197       -2.48891       -0.28434
C         -3.66995       -1.49583        1.97757
H         -2.06410       -1.29459        0.67528
H         -4.53643       -2.54165       -0.40336
H         -2.97126       -2.29543       -1.24345
H         -3.08030       -3.42651        0.13353
H         -4.76064       -1.50961        1.92310
H         -3.31426       -2.41571        2.44533
H         -3.34395       -0.64046        2.57098
H         -3.43669       -0.45030        0.18052
H         -4.17068        3.06436        0.24467
H         -4.06736        1.83685        1.51791
H         -1.98055        3.13724        1.42758
H         -1.65373        1.47472        0.94513
H         -1.57035        3.79939       -0.76124
H         -0.75519        2.36216       -0.87171
H         -4.84237        1.10687       -0.81145
H         -3.25703        1.21741       -1.21481
C         -3.66686        2.13415        0.54054
C         -2.16243        2.39600        0.63721
N         -3.90117        1.05689       -0.43452
N         -1.65053        2.79554       -0.66627
