32
1sa1msa1a1eda_267.log	Energy: -1011225.6647895
S         -0.38826       -1.25056       -0.51455
O         -0.06364        0.03366       -1.19161
O         -1.64275       -1.85280       -0.98325
O          0.74220       -2.29042       -0.92755
O         -0.33804       -1.10340        0.96526
H          1.62153       -1.90425       -0.69548
H         -1.94728       -1.61459        1.67743
S          3.11053        0.46592        0.18618
O          4.41277        1.09035        0.17040
O          2.99427       -0.94534       -0.20075
O          2.15651        1.32875       -0.73985
H          1.32068        0.81587       -0.96040
C          2.37725        0.64372        1.79722
H          3.00813        0.09092        2.49455
H          2.36306        1.70491        2.04530
H          1.37193        0.21698        1.76183
N         -2.94704       -1.75807        1.43591
H         -3.42176       -2.38028        2.08189
H         -2.88742       -2.15067        0.48481
H         -3.40060       -0.76931        1.36937
H         -3.02665        0.17147       -0.84501
H         -4.62228        0.91881       -0.87489
H         -2.84241        2.36158       -1.89735
H         -3.60948        3.15284       -0.50842
H         -1.02265        1.76880       -0.43619
H         -1.30983        3.36006       -0.13937
H         -2.90446        1.31292        1.41371
H         -4.53991        1.27811        1.39567
C         -3.62412        0.99291       -0.43440
C         -2.95976        2.32012       -0.80487
N         -3.71389        0.81267        1.03062
N         -1.70445        2.43012       -0.06687
