35
1sa1msa1ma1eda_252.log	Energy: -1035880.8789823
S          0.33024       -0.20206        0.71734
O         -0.73709        0.41225        1.53196
O          1.52327       -0.61339        1.45534
O         -0.26192       -1.57986        0.14077
O          0.66189        0.62986       -0.47844
H         -1.16752       -1.41489       -0.21790
H          2.24169        0.34277       -0.86863
S         -3.69354        0.03078       -0.18114
O         -4.68833       -0.54892        0.69801
O         -2.70382       -0.87051       -0.79120
O         -2.94100        1.23052        0.51110
H         -2.06017        0.93314        0.92579
C         -4.51082        0.90864       -1.49110
H         -5.09612        0.17531       -2.04651
H         -5.16207        1.65877       -1.04276
H         -3.75441        1.36844       -2.12581
N          3.36650       -2.40271        0.03623
H          4.21773       -2.86197        0.34368
C          2.55120       -3.30967       -0.78657
H          2.35371       -4.27050       -0.29878
H          1.58915       -2.83124       -0.98271
H          3.05583       -3.49858       -1.73832
H          2.83613       -2.13254        0.86643
H          3.84004        2.67852       -1.53456
H          4.60116        3.13584       -0.01239
H          5.11698        0.84823       -0.25483
H          3.77496        0.87134        0.92246
H          3.52912        0.25405       -1.94896
H          3.42020       -0.86571       -0.65002
H          2.36489        3.97551       -0.02579
H          1.72991        2.45591       -0.12480
C          3.78083        2.54737       -0.43654
C          4.05973        1.08468       -0.11037
N          2.54063        2.99738        0.16649
N          3.27456        0.15568       -0.96808
