40
1sa1msa2eda_282.log	Energy: -1095270.9334344
S          0.69600       -1.51757       -0.50129
O          0.79202       -0.25260       -1.23694
O         -0.51601       -2.30636       -0.82041
O          1.94759       -2.30586       -0.54777
O          0.58071       -1.14132        1.06589
H          3.19827       -1.32126       -0.78746
H         -0.33613       -0.82355        1.23774
S         -3.14627       -0.39721        0.34158
O         -3.90359        0.81644        0.11009
O         -2.00333       -0.34005        1.25882
O         -2.68151       -0.95347       -1.05267
H         -1.81977       -1.49567       -0.99266
C         -4.25154       -1.65731        0.93548
H         -4.63753       -1.32269        1.89889
H         -5.05852       -1.76628        0.21114
H         -3.69074       -2.58619        1.04257
H          4.47581        1.39012       -0.68893
H          2.72954        1.01631       -0.80852
H          3.41066        1.60414        1.54213
H          2.74265       -0.01588        1.41017
H          5.55019        0.64468        1.84113
H          4.65828       -0.56772        2.47613
H          4.31771       -0.65093       -1.86122
H          4.78020       -0.99726       -0.27708
C          3.68032        0.70730       -0.37798
C          3.60205        0.60521        1.14091
N          4.02335       -0.65443       -0.88794
N          4.82955       -0.03715        1.63062
H          0.63164        4.04089       -0.73294
H          0.97675        2.53848       -1.59381
H         -1.36303        3.13277       -1.95607
H         -1.24354        1.64910       -1.01282
H         -2.07312        4.25818       -0.02024
H         -2.72401        2.77461        0.24989
H          0.34685        2.72874        1.24792
H          0.75912        1.38055        0.45601
C          0.42336        2.96286       -0.74763
C         -1.07271        2.72959       -0.97257
N          0.93614        2.38281        0.49284
N         -1.85230        3.28094        0.13420
