28
1sa1msa1eda_112.log	Energy: -975728.9692184
S          0.52783       -1.03036       -0.13287
O          1.54624       -1.79940       -0.83438
O         -0.80821       -1.65320       -0.02880
O          0.99127       -0.53430        1.20029
O          0.34023        0.29052       -1.03943
H          2.48636       -0.30145        1.28979
H         -0.48264        0.75891       -0.75521
S         -3.20551        0.59056        0.13961
O         -2.01211        1.36195       -0.23405
O         -4.35134        1.30215        0.65595
O         -2.80395       -0.50644        1.20711
H         -1.98141       -0.98592        0.89049
C         -3.67229       -0.38318       -1.27629
H         -3.93623        0.31246       -2.07348
H         -2.81785       -1.00112       -1.55863
H         -4.52851       -0.99712       -0.99728
H          5.25210       -0.33712        0.10071
H          3.78305       -1.20291       -0.46601
H          4.26396        0.88608       -1.81874
H          2.68419        0.89275       -1.03778
H          4.98951        2.50598       -0.27539
H          3.39812        2.88994       -0.28065
H          3.96368       -0.74425        2.02189
H          3.70884        0.86091        1.59365
C          4.16655       -0.28363       -0.02200
C          3.76002        0.93654       -0.84715
N          3.55641       -0.12267        1.32784
N          4.06028        2.14996       -0.08243
