38
1sa1msa1dma1eda_352.log	Energy: -1060536.4725736
S          0.43920       -1.69526       -0.13282
O         -0.75343       -2.56746       -0.18670
O          0.42232       -0.62191       -1.13483
O          0.41313       -0.98321        1.31781
O          1.72230       -2.43205       -0.09924
H         -0.47097       -0.56027        1.42279
H          2.88903       -1.48291       -0.65386
S         -2.97367        0.09280        0.06780
O         -2.75581        1.16526       -0.88316
O         -2.10887        0.04988        1.25675
O         -2.95998       -1.31442       -0.63749
H         -2.08475       -1.81773       -0.49291
C         -4.66206        0.14060        0.61650
H         -4.81230        1.10620        1.10011
H         -5.30455        0.04531       -0.25870
H         -4.82336       -0.67791        1.31691
N          0.51366        2.34150       -0.32893
C         -0.01624        3.31423       -1.27285
C          0.13891        2.64995        1.04161
H          0.15093        1.42226       -0.57206
H          0.46260        4.28708       -1.10719
H          0.20987        2.99539       -2.29427
H         -1.10703        3.44683       -1.19003
H          0.62070        3.58522        1.35322
H         -0.94864        2.76232        1.18296
H          0.48304        1.85324        1.70784
H          4.08435        1.19219       -1.30642
H          2.34137        0.77280       -1.25408
H          3.08830        1.95581        0.82920
H          2.43831        0.35136        1.13557
H          5.24090        1.13133        1.32388
H          4.38484        0.09073        2.24967
H          3.94092       -1.08197       -1.91469
H          4.47358       -1.00332       -0.31777
C          3.31662        0.59751       -0.80310
C          3.28214        0.88804        0.69251
N          3.68432       -0.84178       -0.96058
N          4.53073        0.40809        1.29910
