33
1sa1msa1ma1dma_70.log	Energy: -1001155.8482523
S         -1.50602       -1.49612        0.11223
O         -0.57882       -1.31700        1.26936
O         -2.84268       -0.98311        0.40507
O         -0.91647       -1.05258       -1.15892
O         -1.62909       -3.10141       -0.09832
H         -2.08318       -3.47361        0.67013
S          2.44605       -0.17776       -0.15424
O          3.83718        0.15873        0.06247
O          1.47918        0.90652       -0.34750
O          1.98420       -1.06647        1.06824
H          0.98021       -1.17197        1.10560
C          2.30933       -1.28768       -1.53760
H          2.66656       -0.75080       -2.41742
H          2.93911       -2.15403       -1.33591
H          1.25822       -1.56276       -1.64657
N         -0.99406        1.66742        1.78129
H         -1.85357        1.84523        2.29226
C          0.12431        2.43196        2.34947
H          0.30126        2.21674        3.40945
H          1.02904        2.19147        1.78755
H         -0.07183        3.50248        2.24159
H         -0.81691        0.66424        1.86336
N         -1.17398        1.80111       -0.95994
C         -0.41368        2.93404       -1.52253
C         -2.60283        1.78298       -1.33903
H         -0.74335        0.89972       -1.21820
H         -0.83809        3.86551       -1.14265
H          0.62639        2.83657       -1.21592
H         -0.48609        2.91925       -2.61192
H         -3.06962        2.70803       -0.99475
H         -2.69353        1.70548       -2.42390
H         -3.07550        0.92201       -0.86436
H         -1.10408        1.81360        0.11929
