40
1sa1msa2eda_45.log	Energy: -1095296.6596974
S         -2.69481        0.39123       -0.04613
O         -3.19712       -0.91317        0.39936
O         -2.26229        1.27711        1.05637
O         -1.70675        0.32734       -1.14252
O         -3.94887        1.14415       -0.76077
H         -4.70056        1.10644       -0.15415
S          2.92445       -0.59070       -0.15618
O          3.32993        0.71779       -0.68764
O          2.56702       -1.60550       -1.18483
O          1.82756       -0.47370        0.86807
C          4.32621       -1.26269        0.72088
H          5.13375       -1.39935        0.00121
H          4.61771       -0.55208        1.49440
H          4.03587       -2.21673        1.16071
H          1.66093        2.38895       -0.77818
H         -0.00507        1.92055       -1.19547
H          0.30809        4.40953       -1.40373
H         -0.90035        3.98695       -0.18494
H          1.84821        4.83702        0.38055
H          0.44930        5.46565        0.95384
H          1.00477        0.98599        0.92049
H          0.79122        2.56103        1.53301
C          0.60948        2.49041       -0.49752
C          0.16849        3.94546       -0.41892
N          0.45377        1.87658        0.84811
N          0.90096        4.60707        0.66337
H         -0.54933        1.67177        1.03634
H         -2.02864       -2.59602       -1.13094
H         -0.71641       -3.59456       -1.80282
H         -1.92660       -4.62687        0.19050
H         -0.17962       -4.46673        0.43412
H         -2.12571       -2.50603        1.46219
H         -1.16814       -3.52729        2.35673
H         -0.52247       -1.01609       -1.03830
H         -0.02477       -1.77984        0.33606
C         -1.04671       -3.02923       -0.93035
C         -1.11195       -3.90132        0.32481
N         -0.11478       -1.89967       -0.68743
N         -1.25163       -3.02816        1.48117
H          0.85645       -1.99935       -1.04896
