27
1sa1msa1a1ma_122.log	Energy: -951828.3625152
S          0.94890       -1.08500        0.18560
O          2.21058       -1.67277       -0.24981
O         -0.25755       -1.85482       -0.17838
O          0.93517       -0.65111        1.60743
O          0.87408        0.30825       -0.65951
H          1.85214        0.70497        1.73847
H         -0.04567        0.66229       -0.59435
S         -2.87482        0.36285       -0.28660
O         -3.50087        0.24788       -1.58803
O         -1.64427        1.16938       -0.19075
O         -2.61794       -1.04546        0.36444
H         -1.67750       -1.39289        0.16868
C         -4.04787        1.01558        0.87587
H         -4.33453        2.00414        0.51609
H         -4.90998        0.34897        0.89382
H         -3.57321        1.07407        1.85440
N          2.47397        1.54399        1.55850
H          2.84396        1.92205        2.42556
H          1.91025        2.24551        1.08427
H          3.27620        1.18504        0.87486
N          4.19749        0.48152       -0.20611
H          5.18155        0.36356        0.01543
C          4.03136        1.12133       -1.52139
H          4.52964        0.57173       -2.32651
H          2.96380        1.16647       -1.74611
H          4.43333        2.13799       -1.49052
H          3.77007       -0.45013       -0.23483
