27
1sa1msa1a1ma_65.log	Energy: -951833.3033428
S          1.24175        0.60198        0.44524
O          0.30927        1.37933        1.27546
O          0.81414       -0.81857        0.25408
O          1.48461        1.26113       -0.87241
O          2.60691        0.53226        1.20999
H          3.16477       -0.26876        0.83179
S         -2.66809       -0.63963       -0.16232
O         -3.89256       -1.35082       -0.45104
O         -2.51503        0.70017       -0.75809
O         -1.46964       -1.55454       -0.60439
H         -0.55851       -1.20454       -0.30608
C         -2.44937       -0.46530        1.59455
H         -3.28519        0.13439        1.95733
H         -2.47159       -1.46162        2.03572
H         -1.49741        0.03930        1.77972
N         -0.72055        2.73121       -0.92640
H         -1.44959        1.98335       -0.90108
H         -0.64139        3.11185        0.01689
H          0.20710        2.24766       -1.10997
H         -0.94207        3.44911       -1.60921
N          3.79116       -1.50989        0.13345
H          4.58484       -1.93660        0.60044
C          4.10761       -1.17728       -1.26428
H          4.39729       -2.05098       -1.85821
H          3.23092       -0.70937       -1.71658
H          4.92136       -0.44938       -1.28055
H          3.01571       -2.16732        0.17345
