38
1sa1msa1dma1eda_278.log	Energy: -1060542.9773556
S          0.37508        2.04341       -0.13406
O          1.42023        2.56344        0.74132
O          0.81754        1.10719       -1.18227
O         -0.79207        1.50941        0.62283
O         -0.18604        3.30744       -0.98630
H         -0.13812        4.08653       -0.41577
S         -3.30473       -0.69603        0.17656
O         -3.06269       -1.03402        1.56916
O         -2.54001       -1.45940       -0.82372
O         -3.13002        0.84281       -0.08206
H         -2.18495        1.15990        0.16018
C         -5.02785       -0.85912       -0.20931
H         -5.27933       -1.91146       -0.07505
H         -5.59326       -0.23438        0.48136
H         -5.18303       -0.55037       -1.24247
N          0.25080       -1.48129       -0.46625
C          0.48934       -1.55926        0.99780
C          0.99867       -2.48302       -1.26029
H         -0.76468       -1.56613       -0.64555
H          1.52419       -1.27205        1.20094
H         -0.19002       -0.86429        1.49190
H          0.28891       -2.57770        1.33378
H          2.06442       -2.40605       -1.01989
H          0.63094       -3.47876       -1.00526
H          0.82297       -2.28775       -2.31877
H          0.50424       -0.52102       -0.78629
H          5.75145       -0.94498        0.36084
H          5.17872       -1.13547       -1.30076
H          4.55707        1.06019       -0.39777
H          3.12091        0.11675       -0.78576
H          4.19349        0.46669        1.91634
H          2.78641        1.03544        1.32049
H          4.68000       -3.08969        0.04551
H          3.74229       -2.17315        1.02877
C          4.84636       -1.06331       -0.25964
C          3.97345        0.17538       -0.10171
N          4.08570       -2.26819        0.07650
N          3.44444        0.25958        1.26126
