20
1sa1msa1a_18.log	Energy: -891670.3805242
S          1.63862       -0.60166        0.07042
O          0.57413       -1.27717        0.80534
O          2.87801       -1.29581       -0.18080
O          1.08371       -0.15875       -1.34282
O          1.90878        0.74646        0.81553
H          0.15965        0.19860       -1.24965
H          2.82444        1.13382        0.49730
S         -2.44552        0.10239       -0.13865
O         -3.16650       -0.94269       -0.83208
O         -1.35769        0.78623       -0.85740
O         -1.88252       -0.40904        1.25303
H         -0.95513       -0.76308        1.14564
C         -3.57968        1.33260        0.44854
H         -4.06013        1.76202       -0.43103
H         -4.31330        0.83748        1.08448
H         -3.02022        2.08765        0.99907
N          4.24612        1.50324       -0.05115
H          4.21078        1.98487       -0.94447
H          4.67891        0.59504       -0.20490
H          4.83704        2.03974        0.57571
