38
1sa1msa1dma1eda_380.log	Energy: -1060529.9874892
S         -1.33462       -0.23711       -0.14877
O         -0.14632       -0.47101       -0.99883
O         -2.28253       -1.34590       -0.09197
O         -0.81300       -0.07420        1.35128
O         -2.00520        1.05772       -0.49773
H         -0.02978        0.52656        1.35523
H         -3.49331        0.93981       -0.20498
S          2.28045        1.79178        0.03414
O          3.58624        1.21631        0.28873
O          1.25290        1.65785        1.07586
O          1.69616        1.28482       -1.33912
H          0.96331        0.59253       -1.21458
C          2.47739        3.51833       -0.32984
H          2.91648        3.98014        0.55489
H          3.14896        3.60894       -1.18345
H          1.49775        3.94131       -0.54872
N         -4.53944        0.75866        0.01256
C         -4.63652        0.22055        1.39356
C         -5.07115       -0.16076       -1.02404
H         -5.01619        1.65754       -0.04224
H         -4.06197       -0.70547        1.42645
H         -4.19814        0.94250        2.08257
H         -5.68329        0.03968        1.64370
H         -4.47897       -1.07525       -0.98257
H         -6.12542       -0.36568       -0.82981
H         -4.94861        0.30703       -2.00097
H          2.53620       -1.39475       -0.84244
H          4.04499       -2.30459       -0.74184
H          2.26835       -3.73262       -1.57001
H          2.79078       -4.30153        0.03017
H          0.38993       -2.67380       -0.43672
H          0.43217       -4.23549        0.06767
H          3.54832       -0.97210        1.26711
H          2.28964       -1.98495        1.57258
C          3.05250       -2.19785       -0.28896
C          2.27263       -3.49060       -0.49412
N          3.20383       -1.91709        1.13311
N          0.93566       -3.35691        0.08098
