36
1sa1msa2dma_40.log	Energy: -1025818.3654881
S          0.88358       -1.14999       -0.38354
O          0.11753       -2.31171       -0.88657
O          1.12352       -0.07874       -1.36167
O          0.20865       -0.61138        0.85437
O          2.27614       -1.71180        0.06867
H          2.96643       -0.91311        0.06545
S         -1.79451        2.03577        0.01798
O         -2.51460        3.20313        0.47821
O         -2.56221        0.79539       -0.20066
O         -0.63029        1.74495        1.03085
H         -0.25603        0.78614        0.93243
C         -0.94981        2.40674       -1.50053
H         -1.71309        2.56125       -2.26414
H         -0.37493        3.31944       -1.34232
H         -0.29730        1.56381       -1.74367
N         -2.33500       -1.92108        0.18523
C         -3.44539       -2.45237       -0.62880
C         -2.34740       -2.33896        1.60300
H         -1.41145       -2.18607       -0.24449
H         -4.39519       -2.12019       -0.20712
H         -3.34224       -2.07200       -1.64486
H         -3.39855       -3.54234       -0.63604
H         -3.26139       -1.97820        2.07744
H         -2.30064       -3.42776        1.65649
H         -1.47036       -1.90367        2.08120
H         -2.35054       -0.88323        0.13672
N          3.84080        0.33890       -0.02652
C          5.27550        0.08114        0.08417
C          3.34991        1.32163        0.94376
H          3.60980        0.65785       -0.96461
H          5.48230       -0.36402        1.06135
H          5.57898       -0.63024       -0.68682
H          5.87442        0.99683       -0.01506
H          3.46366        0.91354        1.95176
H          3.89510        2.27318        0.88411
H          2.28862        1.50379        0.76500
