24
1sa1msa2a_66.log	Energy: -927166.7603451
S         -2.17193        0.11255       -0.17318
O         -2.44189       -0.48166        1.15067
O         -1.95140        1.55176       -0.21599
O         -1.12750       -0.67515       -0.89492
O         -3.55186       -0.17114       -0.97482
H         -3.57996        0.41907       -1.74028
S          2.29896       -0.32766       -0.20800
O          3.29965       -1.26182       -0.68353
O          1.51117       -0.72712        0.97693
O          1.30408        0.01495       -1.38290
H          0.33703       -0.17840       -1.16150
C          3.03119        1.24474        0.13159
H          3.76479        1.08675        0.92354
H          3.52241        1.57786       -0.78326
H          2.23369        1.93507        0.44275
N         -0.57746       -2.40328        1.26792
H         -0.51576       -3.05999        2.04053
H         -1.37363       -1.71696        1.38289
H          0.30067       -1.83492        1.17433
H         -0.73033       -2.89108        0.38682
N          0.45064        3.09356        0.97360
H          0.29279        3.17739        1.97276
H         -0.35045        2.59496        0.58688
H          0.42882        4.03296        0.58977
