41
1sa1msa1tma1eda_168.log	Energy: -1085207.0528230
S         -0.91998       -2.23744       -0.39556
O         -0.17570       -1.44902        0.76244
O         -0.92391       -1.38794       -1.58013
O         -0.32270       -3.54707       -0.46124
O         -2.38400       -2.38525        0.15135
H         -2.74578       -1.47004        0.37611
S         -2.30341        1.28193        0.51034
O         -2.68739        2.46816        1.26037
O         -3.08526        0.05030        0.79683
O         -0.81480        0.97832        0.62878
H         -0.46993       -0.46023        0.76261
C         -2.54499        1.61383       -1.22867
H         -3.60824        1.80004       -1.38311
H         -1.96547        2.49844       -1.49716
H         -2.21872        0.73615       -1.79000
H          0.36199        3.20553       -0.97061
H          1.98582        3.88408       -1.08535
H          1.48439        2.16204       -2.80729
H          2.92796        1.81189       -1.84849
H          0.34541        0.67637       -1.03607
H          1.23024       -0.07120       -2.16586
H          1.81114        3.44803        1.12391
H          0.89409        2.12366        0.92700
C          1.42869        2.97835       -0.82612
C          1.83437        1.87982       -1.80542
N          1.71645        2.60768        0.56321
N          1.29924        0.57606       -1.38596
N          2.88139       -0.54919        0.55255
C          2.96832       -1.97922        0.16908
H          2.01099       -2.46056        0.36641
H          3.19092       -2.04451       -0.89716
H          3.76364       -2.46074        0.74314
C          4.14436        0.17596        0.27974
H          4.40345        0.04700       -0.77248
H          3.97265        1.23234        0.49348
H          4.94170       -0.22862        0.90808
C          2.47509       -0.38291        1.96934
H          2.35322        0.68214        2.16275
H          1.53538       -0.90777        2.12973
H          3.25437       -0.80064        2.61235
H          2.15037       -0.09223       -0.11183
