35
1sa1msa1ma1eda_192.log	Energy: -1035885.3088980
S          0.44126       -1.54893        0.37210
O         -0.17271       -0.99901       -0.87838
O          0.68896       -0.51507        1.38551
O         -0.59609       -2.57109        0.95729
O          1.68667       -2.30384        0.05335
H         -1.35013       -2.77935        0.25219
H          2.87957       -1.33103        0.42014
S         -1.52344        2.21256       -0.00874
O         -2.58248        3.16192       -0.28355
O         -0.15192        2.54189       -0.39430
O         -1.94226        0.84630       -0.69672
H         -1.17582        0.18457       -0.75825
C         -1.53038        1.80618        1.72382
H         -1.25722        2.71399        2.26384
H         -2.53996        1.49335        1.99086
H         -0.80108        1.00931        1.89076
N         -2.44342       -2.93034       -0.80957
H         -1.99130       -2.50589       -1.61654
C         -3.65252       -2.17727       -0.44329
H         -4.41924       -2.19422       -1.22502
H         -4.07103       -2.59834        0.47348
H         -3.37495       -1.13877       -0.25284
H         -2.66640       -3.89148       -1.04832
H          4.88574        0.47772       -0.81449
H          3.89641       -0.79803       -1.57584
H          3.03577        1.56509       -2.04954
H          1.84645        0.53933       -1.24935
H          3.27441        2.75528       -0.05419
H          1.73880        2.21669        0.17566
H          4.44443       -0.93247        0.97123
H          3.21410        0.22111        1.05010
C          3.89911        0.00736       -0.83985
C          2.80580        1.04663       -1.11157
N          3.61972       -0.56573        0.50472
N          2.70554        1.92304        0.05085
