40
1sa1msa2eda_10.log	Energy: -1095297.3995875
S         -2.29879        1.63723       -0.17917
O         -3.18744        0.85299        0.67588
O         -1.65338        2.79296        0.44384
O         -1.32789        0.78890       -0.94054
O         -3.21309        2.21523       -1.40430
H         -3.85978        2.82496       -1.02443
S          2.33577       -1.64752       -0.29031
O          2.89078       -0.46108       -1.00249
O          1.45507       -2.47886       -1.15933
O          1.68178       -1.28755        0.98711
C          3.74437       -2.67130        0.09613
H          4.23843       -2.93779       -0.83821
H          4.41377       -2.09739        0.73705
H          3.38601       -3.56246        0.61150
H          0.59993        2.56532        1.19677
H          1.40244        0.97788        1.37031
H          2.91227        2.82310        2.16157
H          3.58151        1.96639        0.76598
H          2.28871        4.59880        0.67041
H          3.78042        4.17981        0.13968
H          0.29286        1.43493       -0.80835
H          1.52772        2.56793       -1.07586
C          1.44057        1.94794        0.87137
C          2.77936        2.63868        1.08743
N          1.27160        1.70615       -0.58538
N          2.83203        3.84593        0.26046
H          1.90691        0.92800       -0.88210
H         -0.84707       -3.20415        1.08014
H         -0.86266       -1.48193        1.47026
H         -2.99373       -2.62671        2.21800
H         -3.29441       -1.35995        1.02145
H         -3.37593       -4.24653        0.52505
H         -4.44170       -3.08747        0.07743
H         -0.18501       -2.17381       -0.86249
H         -1.84719       -2.49996       -1.07763
C         -1.35537       -2.25650        0.88311
C         -2.85017       -2.34850        1.16618
N         -1.16070       -1.94431       -0.55529
N         -3.45816       -3.28413        0.21573
H         -1.32781       -0.93260       -0.74020
