42
1sa1msa2tma_43.log	Energy: -1075129.5881690
S         -0.09947       -1.93557       -0.16702
O         -1.39734       -2.41345        0.34215
O          0.91289       -2.95681       -0.40501
O         -0.36623       -1.30432       -1.62038
O          0.42392       -0.80294        0.67105
H         -1.12880       -0.68151       -1.55906
H          2.04380       -0.75283        0.55021
S         -3.25304        0.46454        0.07587
O         -4.49216        1.20384        0.01299
O         -2.38452        0.44367       -1.10942
O         -3.59947       -1.02057        0.48867
H         -2.78352       -1.60360        0.41650
C         -2.26999        1.04595        1.44029
H         -2.02198        2.08781        1.23161
H         -2.86818        0.96620        2.34791
H         -1.36501        0.43532        1.49460
N          3.08425       -0.76709        0.34209
C          3.70900        0.38584        1.03398
H          3.25699        1.29798        0.63336
H          3.51476        0.29914        2.10395
H          4.78614        0.36936        0.85028
C          3.61743       -2.06607        0.82352
H          3.46471       -2.12764        1.90161
H          3.06264       -2.86583        0.33390
H          4.68395       -2.11998        0.59274
C          3.19048       -0.63743       -1.13473
H          2.65436       -1.46968       -1.59162
H          2.73012        0.30800       -1.42283
H          4.24543       -0.65213       -1.41847
N          1.62418        2.61556       -0.21155
C          2.19957        3.87210       -0.66473
H          2.99389        4.18830        0.01908
H          2.63471        3.74264       -1.66015
H          1.44937        4.68227       -0.71966
C          0.59019        2.14816       -1.12782
H          1.01310        2.00478       -2.12706
H          0.19409        1.19398       -0.77720
H         -0.24774        2.86316       -1.21175
C          1.08750        2.73958        1.13474
H          0.70634        1.76896        1.46561
H          1.87442        3.06027        1.82599
H          0.26587        3.47779        1.19316
