42
1sa1msa2tma_56.log	Energy: -1075123.1647938
S         -1.11003       -0.43837       -0.42373
O         -2.01516       -1.57758       -0.56856
O         -0.01557       -0.37097       -1.40884
O         -1.86330        0.85822       -0.35226
O         -0.44891       -0.64033        1.01809
H         -3.31728        0.54449       -0.03358
H          0.32940       -0.03698        1.10760
S          2.49463        1.61583        0.11624
O          3.87515        1.29413        0.41935
O          1.45590        1.25945        1.09126
O          2.11000        1.06378       -1.30463
H          1.29272        0.46261       -1.28899
C          2.37556        3.36938       -0.15892
H          2.65544        3.86243        0.77249
H          3.06627        3.63639       -0.95855
H          1.34658        3.60315       -0.43114
N         -4.34747        0.31122        0.19550
C         -4.32795       -0.58525        1.37794
H         -3.76025       -1.47820        1.11588
H         -3.82780       -0.07033        2.19902
H         -5.35412       -0.83716        1.65739
C         -5.02632        1.59350        0.48023
H         -4.53827        2.06986        1.33106
H         -4.94022        2.24095       -0.39304
H         -6.07960        1.41059        0.70685
C         -4.90761       -0.36850       -0.99767
H         -4.85380        0.31561       -1.84533
H         -4.29459       -1.24638       -1.20280
H         -5.94690       -0.64552       -0.80341
N          2.54622       -1.84859        0.15310
C          3.11717       -1.89545        1.48638
H          3.79122       -1.04626        1.62684
H          2.31825       -1.82749        2.23159
H          3.68163       -2.83184        1.67086
C          1.60362       -2.93315       -0.05572
H          0.81195       -2.88604        0.69615
H          1.13689       -2.83124       -1.03910
H          2.09170       -3.92663        0.00586
C          3.58245       -1.86050       -0.86377
H          3.12630       -1.74809       -1.85196
H          4.26617       -1.02283       -0.70519
H          4.16703       -2.80259       -0.85490
