24
1sa1msa2a_46.log	Energy: -927172.6820829
S         -1.59525       -0.36940        0.49750
O         -2.77541       -0.72618        1.27280
O         -0.98205       -1.43510       -0.29180
O         -2.07040        0.79177       -0.54751
O         -0.55675        0.39025        1.29246
H         -2.98041        0.51936       -0.90687
H         -0.26862        1.99552        0.74074
S          2.61277       -0.13339       -0.17502
O          4.04329       -0.09233        0.02448
O          1.98428        0.99180       -0.89584
O          1.94052       -0.27129        1.24512
H          0.94102       -0.10465        1.23936
C          2.14811       -1.62228       -1.02012
H          2.55642       -1.55524       -2.02911
H          2.58949       -2.45890       -0.47843
H          1.05688       -1.68458       -1.02574
N         -0.02652        2.59181       -0.08496
H         -0.80257        2.42011       -0.73160
H          0.84220        2.15798       -0.47233
H          0.08809        3.57583        0.13521
N         -4.47796       -0.18235       -1.17609
H         -5.29274        0.39494       -1.35298
H         -4.57784       -0.61544       -0.25905
H         -4.45739       -0.92414       -1.86851
