32
1sa1msa1a1eda_79.log	Energy: -1011236.4805741
S         -1.63219        1.59640        0.48723
O         -1.53166        0.37335        1.28875
O         -1.32820        1.21552       -1.02237
O         -2.85920        2.33928        0.50428
O         -0.45504        2.55437        0.87952
H          0.42604        2.05450        0.92454
S          2.17374        0.43156       -0.33450
O          3.00383       -0.72928        0.00897
O          1.77210        1.25073        0.84284
O          0.97105        0.04661       -1.15230
H         -0.41494        0.78799       -1.10994
C          3.15232        1.48981       -1.38098
H          3.43692        0.92152       -2.26658
H          2.55007        2.35727       -1.65299
H          4.03368        1.79421       -0.81612
N          1.94449       -2.89432        1.71657
H          2.53824       -2.20116        1.25169
H          2.35403       -3.81021        1.56434
H          1.97901       -2.70774        2.71396
H         -1.15557       -3.82151       -0.28200
H         -1.92444       -3.15302        1.17609
H         -3.40167       -2.90344       -0.84297
H         -2.95710       -1.34942       -0.13927
H         -2.17275       -2.34933       -2.71816
H         -2.16899       -0.80308       -2.14361
H          0.44356       -2.43738        0.89980
H         -0.02263       -1.67949       -0.54763
C         -1.52024       -2.90625        0.19164
C         -2.56496       -2.21277       -0.68461
N         -0.36328       -2.00264        0.37070
N         -1.94324       -1.76555       -1.92522
H         -0.65994       -1.13894        0.85712
