24
1sa1msa2a_35.log	Energy: -927175.3302356
S          1.34898       -1.07855       -0.17638
O          0.63182       -2.32408        0.03237
O          0.74489       -0.22557       -1.25004
O          1.20483       -0.18049        1.17872
O          2.81558       -1.15420       -0.30733
H          0.27369        0.13837        1.24353
H          3.41024        0.35418        0.13665
S         -2.34642        0.30650        0.10669
O         -3.60340        1.01605        0.06309
O         -1.28381        0.83311        0.98534
O         -1.78287        0.22121       -1.36409
H         -0.79691       -0.02030       -1.36051
C         -2.61327       -1.39617        0.54302
H         -2.99477       -1.41214        1.56468
H         -3.34899       -1.80265       -0.15091
H         -1.66139       -1.92892        0.46720
N          3.52768        1.32288        0.53875
H          3.46991        1.23345        1.55082
H          2.68824        1.92120        0.19299
H          4.41908        1.72983        0.27026
N          1.26994        2.56182       -0.40794
H          0.53282        2.63543        0.29051
H          0.99058        1.78451       -1.01173
H          1.25636        3.41566       -0.95677
