30
1sa1msa1a1dma_13.log	Energy: -976506.8262037
S         -2.57810       -0.45003        0.13846
O         -1.68322       -0.53312       -1.05167
O         -2.68168       -1.73586        0.83383
O         -2.26458        0.72457        0.96454
O         -4.06045       -0.10430       -0.42907
H         -4.45034       -0.92190       -0.76597
S          2.58014       -0.41643       -0.10771
O          2.34904        0.84930       -0.85611
O          2.57370       -1.63015       -0.94805
O          1.62768       -0.52558        1.04546
C          4.21155       -0.28004        0.59805
H          4.92401       -0.16960       -0.21976
H          4.23388        0.59334        1.24991
H          4.41478       -1.18955        1.16352
N          0.03326       -2.43520       -0.07454
H          0.50338       -1.81242        0.62084
H          0.79364       -2.81589       -0.64269
H         -0.55007       -3.13677        0.37435
H         -0.58038       -1.81198       -0.64817
N         -0.01215        1.97678       -0.04283
C          0.45915        2.82204        1.07254
C         -0.63613        2.71300       -1.16148
H          0.80645        1.43420       -0.40009
H         -0.39210        3.34540        1.51008
H          0.91837        2.16883        1.81464
H          1.19476        3.53517        0.69783
H         -1.49243        3.27409       -0.78488
H          0.09921        3.38773       -1.60218
H         -0.97234        1.98296       -1.89739
H         -0.72246        1.31956        0.33321
