27
1sa1msa1a1ma_106.log	Energy: -951830.2033896
S          0.87013       -1.02087       -0.24256
O          1.04792       -0.61543       -1.66047
O         -0.43406       -1.67923       -0.01381
O          2.02296       -1.69723        0.34038
O          0.80470        0.38849        0.57793
H         -0.10276        0.76817        0.47117
S         -2.90294        0.48270        0.07770
O         -4.13934        1.13336       -0.28632
O         -1.68841        1.30782        0.18417
O         -2.64887       -0.68383       -0.95669
H         -1.76789       -1.12394       -0.75135
C         -3.08894       -0.38148        1.62277
H         -3.23293        0.37054        2.39925
H         -3.95990       -1.03191        1.54472
H         -2.17920       -0.95903        1.79694
N          2.61399        1.54921       -1.50560
H          1.97642        0.73729       -1.73887
H          3.04263        1.93689       -2.34086
H          2.05118        2.25700       -1.03944
H          3.35693        1.13423       -0.79774
N          4.17825        0.32230        0.31522
H          3.69390       -0.58095        0.30172
C          3.99266        0.93529        1.64047
H          4.41033        0.32874        2.45061
H          4.46571        1.92095        1.66139
H          2.92124        1.05170        1.81600
H          5.16221        0.14610        0.13582
