32
1sa1msa1a1eda_250.log	Energy: -1011225.8303077
S          2.18314       -1.03522       -0.09030
O          2.27956       -0.64899        1.31175
O          1.16900       -2.07508       -0.39904
O          2.09886        0.11156       -1.02396
O          3.59708       -1.76543       -0.40038
H          3.52767       -2.19797       -1.26239
S         -2.17939       -0.98063       -0.09838
O         -1.81085       -0.51167       -1.42576
O         -2.31337        0.03747        0.94935
O         -1.22203       -2.12099        0.39156
H         -0.25617       -2.04407        0.04605
C         -3.70704       -1.88409       -0.17363
H         -3.60799       -2.66164       -0.93038
H         -3.90187       -2.31263        0.80907
H         -4.48543       -1.17137       -0.44731
N          0.16941        1.24142        2.35021
H         -0.72151        0.85177        2.04233
H          0.01970        1.67544        3.25447
H          0.82075        0.46467        2.45920
H          0.60491        4.29797       -0.43634
H          1.29955        3.28358       -1.72878
H         -1.09599        3.20194       -1.99668
H         -0.61922        1.64625       -1.33896
H         -2.23041        3.63933       -0.05793
H         -2.05687        2.04075        0.30990
H          2.21391        2.90505        0.55642
H          0.77470        2.16231        1.03983
C          0.68581        3.27925       -0.82337
C         -0.70359        2.71158       -1.09689
N          1.38039        2.44767        0.19326
N         -1.56052        2.89219        0.06784
H          1.69224        1.54777       -0.24365
