36
1sa1msa2dma_183.log	Energy: -1025802.6184392
S          0.67639       -1.63038        0.03093
O         -0.45334       -2.54800       -0.22329
O          0.71244       -0.48950       -0.89521
O          0.45492       -1.02374        1.50913
O          1.99168       -2.29807        0.15956
H         -0.45059       -0.63662        1.53715
H          3.07406       -1.12362       -0.01827
S         -2.73167        0.08324       -0.12544
O         -2.35555        1.21653       -0.94820
O         -2.07627       -0.05640        1.18352
O         -2.60782       -1.27453       -0.91618
H         -1.76169       -1.78657       -0.68020
C         -4.48738        0.11628        0.13826
H         -4.71284        1.04705        0.65936
H         -4.97604        0.09288       -0.83559
H         -4.76468       -0.74821        0.74023
N          0.81643        2.32694        0.09671
C          0.58917        3.35864       -0.90460
C          0.14549        2.62573        1.35353
H          0.45978        1.44411       -0.26395
H          1.05522        4.29686       -0.58085
H          1.04986        3.06114       -1.85143
H         -0.47998        3.54929       -1.09035
H          0.57920        3.53064        1.79575
H         -0.93849        2.78423        1.23699
H          0.29389        1.79972        2.05511
N          3.78108       -0.32972       -0.08056
C          3.51831        0.63503        1.02352
C          3.70886        0.28769       -1.42919
H          4.69280       -0.76567        0.05255
H          2.61174        1.20194        0.77533
H          3.37974        0.07494        1.94813
H          4.36666        1.31693        1.10831
H          2.69606        0.66670       -1.55969
H          4.43991        1.09505       -1.49512
H          3.91221       -0.47767       -2.17811
