30
1sa1msa2ma_123.log	Energy: -976482.2881299
S          1.00357       -1.53838        0.17313
O          0.18139       -2.68144       -0.19515
O          2.43603       -1.75696        0.36574
O          0.98191       -0.49390       -1.09728
O          0.38157       -0.73075        1.27898
H          0.04851       -0.28328       -1.29032
H          0.98162        0.76446        1.30248
S         -2.80131        0.29753       -0.30513
O         -1.65260        0.49695       -1.17399
O         -4.14385        0.47865       -0.82526
O         -2.61959        1.37658        0.90730
H         -3.48936        1.76146        1.08726
C         -2.65178       -1.24494        0.54947
H         -2.60201       -2.02702       -0.20954
H         -1.71730       -1.22384        1.11619
H         -3.53047       -1.36106        1.18372
N          1.45555        1.70914        1.19384
H          1.52469        2.14205        2.11154
C          0.71269        2.55914        0.23831
H          1.20061        3.53082        0.14997
H          0.71380        2.05442       -0.72634
H         -0.31864        2.67714        0.57077
H          2.44652        1.47878        0.82726
N          3.83237        0.83241        0.12865
H          4.72474        1.00654        0.58044
C          3.91695        1.11922       -1.31082
H          4.73607        0.58638       -1.80713
H          2.97921        0.80920       -1.77614
H          4.05477        2.19295       -1.46899
H          3.60949       -0.15993        0.25890
