30
1sa1msa1a1dma_95.log	Energy: -976490.3033021
S          1.19066        0.45823       -0.66631
O          2.41950        0.37942       -1.45844
O         -0.05700        0.14518       -1.40057
O          1.29267       -0.39540        0.57399
O          1.08572        1.94833       -0.17829
H          2.68478       -0.73621        0.83001
H          0.13590        2.15544        0.21952
S         -3.05666       -0.43271        0.16302
O         -3.44077        0.75356       -0.59729
O         -2.60365       -0.21653        1.53507
O         -2.01203       -1.29144       -0.64122
H         -1.19681       -0.73665       -0.91401
C         -4.40795       -1.58538        0.17469
H         -4.69836       -1.78463       -0.85624
H         -4.08243       -2.49534        0.67778
H         -5.22202       -1.10987        0.72235
N         -1.26632        2.46180        0.79493
H         -1.52615        1.76533        1.49321
H         -1.96802        2.37642        0.05999
H         -1.35204        3.38299        1.21195
N          3.75969       -0.95122        0.96166
C          4.48117        0.34397        0.95465
C          4.18441       -1.87287       -0.11820
H          3.86714       -1.40292        1.86825
H          4.28861        0.81999       -0.00762
H          4.08060        0.97167        1.75101
H          5.55004        0.17674        1.10228
H          3.95537       -1.38755       -1.06757
H          5.25298       -2.08031       -0.03096
H          3.61157       -2.79683       -0.03618
