32
1sa1msa1a1eda_29.log	Energy: -1011240.8253054
S         -2.53645       -1.04242       -0.06051
O         -3.07491        0.17463       -0.66124
O         -2.24612       -2.14262       -0.98697
O         -1.39260       -0.78638        0.87115
O         -3.66114       -1.59210        0.98312
H         -4.47297       -1.75503        0.48395
S          2.90752       -0.28738        0.09923
O          2.64157        0.88413        0.97781
O          1.94477       -0.32447       -1.05067
O          2.95790       -1.58043        0.80963
C          4.52118       -0.01048       -0.60513
H          5.24185        0.02744        0.21200
H          4.74635       -0.83775       -1.27824
H          4.50283        0.93510       -1.14692
N          0.48423       -2.46365       -0.23439
H          0.96431       -1.72921       -0.80579
H         -0.13240       -1.94330        0.42282
H         -0.12451       -3.05764       -0.79567
H          1.22120       -2.95733        0.26912
H          0.75850        2.82257       -0.78413
H         -0.07034        1.36238       -1.33966
H         -1.47811        3.44316       -1.69307
H         -2.24989        2.26599       -0.62445
H         -0.99358        4.77979        0.20470
H         -2.43165        4.14145        0.65529
H          1.00633        1.34310        0.94222
H         -0.30791        2.33840        1.39718
C         -0.11206        2.18135       -0.62149
C         -1.41576        2.96784       -0.70619
N          0.01350        1.61338        0.74492
N         -1.47582        3.91220        0.41273
H         -0.58647        0.76972        0.85247
