30
1sa1msa2ma_57.log	Energy: -976493.4515296
S          1.27534       -1.46229       -0.26449
O          2.46771       -0.68495       -0.64043
O          0.85419       -1.25260        1.13090
O          0.18352       -1.31801       -1.25187
O          1.66038       -3.03064       -0.40411
H          2.36175       -3.23000        0.23082
S         -2.57370        0.21294        0.14089
O         -3.95842        0.61069        0.01978
O         -1.52869        1.21657       -0.10786
O         -2.34241       -1.01828       -0.81882
H         -1.35897       -1.18894       -0.96739
C         -2.28337       -0.47297        1.75530
H         -2.42231        0.33122        2.47918
H         -3.01581       -1.26395        1.91667
H         -1.26182       -0.86048        1.78079
N          1.58860        1.67926        1.54575
H          1.12734        2.32502        2.17847
C          3.03155        1.61139        1.81000
H          3.26976        1.31644        2.83862
H          3.46722        0.87781        1.12780
H          3.48857        2.58557        1.61482
H          1.17594        0.75562        1.69111
N          0.99481        1.70933       -1.13683
H          0.03433        1.33570       -1.11036
H          1.24381        1.84603       -0.09639
C          1.08055        2.94927       -1.92734
H          2.08804        3.35899       -1.85048
H          0.84848        2.74261       -2.97221
H          0.36237        3.66810       -1.53278
H          1.61853        0.96107       -1.46204
