27
1sa1msa1a1ma_135.log	Energy: -951824.8181535
S         -1.96419        0.20439        0.35779
O         -0.68399        0.37892        1.07004
O         -3.16745        0.10326        1.17975
O         -2.09123        1.22941       -0.73167
O         -1.78268       -1.20932       -0.39249
H         -0.72152        1.88655       -0.93244
H         -2.69704       -1.57124       -0.60970
S          2.74210       -0.73147       -0.14605
O          3.92008       -1.50073       -0.50252
O          2.25004        0.28746       -1.06587
O          3.07575        0.05464        1.23481
H          3.91582       -0.28237        1.57797
C          1.40587       -1.78348        0.33447
H          1.03428       -2.25913       -0.57409
H          1.79516       -2.52200        1.03532
H          0.62330       -1.15580        0.77445
N         -4.37639       -1.92629       -0.66426
H         -4.87994       -1.60661       -1.48443
H         -4.60556       -1.30838        0.11351
H         -4.69067       -2.86366       -0.43972
N          0.27071        2.31518       -0.96241
H          0.93855        1.52857       -0.97703
C          0.49624        3.15578        0.23694
H          1.50661        3.56516        0.21930
H         -0.23982        3.95943        0.24951
H          0.35367        2.51553        1.10678
H          0.38353        2.84205       -1.82533
