26
1sa1msa1dma_63.log	Energy: -940984.9859517
S          1.07760       -1.16147       -0.01839
O          0.16880       -2.19554        0.45101
O          2.48825       -1.50254       -0.20148
O          0.61397       -0.72455       -1.50787
O          0.93657        0.11477        0.79017
H         -0.32982       -0.46702       -1.47424
H          2.13434        0.95192        0.53497
S         -2.93239        0.31945       -0.06610
O         -2.00600        0.20591       -1.18073
O         -4.31132       -0.10494       -0.22951
O         -2.97233        1.89478        0.34544
H         -3.89640        2.18045        0.30769
C         -2.21262       -0.38634        1.38715
H         -2.03824       -1.44337        1.17845
H         -1.24896        0.09746        1.55957
H         -2.91238       -0.24240        2.20983
N          3.05898        1.49276        0.29474
C          3.24065        1.45450       -1.17828
C          4.16986        0.86069        1.04632
H          2.93395        2.45623        0.60097
H          3.33266        0.40825       -1.47076
H          2.35473        1.87832       -1.65067
H          4.13357        2.01866       -1.45495
H          4.19027       -0.19368        0.76800
H          5.11303        1.35191        0.79878
H          3.96625        0.95004        2.11360
