30
1sa1msa1a1dma_85.log	Energy: -976491.2316396
S          1.86096       -1.35940       -0.11062
O          0.66448       -0.57515       -0.52799
O          2.98729       -1.29265       -1.02735
O          2.18533       -1.08660        1.30469
O          1.30024       -2.88939       -0.16964
H          1.15717        0.17418        1.88345
H          2.05007       -3.46681       -0.36519
S         -2.60117       -0.02604       -0.04928
O         -2.68708        1.20605       -0.81493
O         -2.09810        0.08520        1.32875
O         -1.79397       -1.13223       -0.82064
H         -0.78680       -0.98937       -0.73484
C         -4.18956       -0.81464        0.00107
H         -4.86033       -0.13811        0.53112
H         -4.52552       -0.96739       -1.02426
H         -4.08913       -1.76149        0.53007
N          0.50052        0.97886        1.98797
H          0.52591        1.34174        2.93606
H         -0.45343        0.64738        1.76401
H          0.79033        1.73398        1.27351
N          1.31485        2.80156        0.06864
C          0.43585        2.65214       -1.09950
C          2.71191        2.47927       -0.24448
H          1.26681        3.76404        0.39200
H          0.47546        1.61230       -1.43022
H         -0.59638        2.87786       -0.82356
H          0.74087        3.30188       -1.93167
H          2.78055        1.43555       -0.56116
H          3.11509        3.10763       -1.05072
H          3.33023        2.60848        0.64780
