38
1sa1msa1dma1eda_166.log	Energy: -1060549.2032787
S         -0.18146       -2.41043       -0.01856
O         -0.37779       -2.97226        1.31157
O         -1.44842       -1.93567       -0.65530
O          0.89828       -1.42671       -0.15863
O          0.32580       -3.63449       -0.97152
H         -0.23186       -4.40168       -0.78589
S         -2.13310        1.26835       -0.09421
O         -2.19786        2.66480       -0.48707
O         -1.35559        0.92433        1.10140
O         -1.59036        0.46900       -1.33100
H         -1.46987       -0.53453       -1.09616
C         -3.76649        0.60711        0.13798
H         -4.20377        1.10259        1.00512
H         -4.34522        0.81139       -0.76260
H         -3.66446       -0.46562        0.31063
N          1.39451        0.89582        1.60661
C          1.54120       -0.14734        2.64322
C          1.48205        2.27270        2.12683
H          2.11780        0.75013        0.84792
H          0.75771       -0.02131        3.39206
H          1.43653       -1.12258        2.17017
H          2.52279       -0.04766        3.11117
H          0.69093        2.43069        2.86137
H          2.45871        2.41862        2.59282
H          1.35699        2.95242        1.28546
H          0.47565        0.78334        1.15111
H          1.10015        0.32384       -1.88131
H          1.67855        1.47290       -3.09357
H          3.57657        0.24055       -2.49813
H          3.76978        1.77653       -1.64537
H          2.82810       -0.73172       -0.44505
H          4.24971        0.03233       -0.14411
H          1.63514        3.15809       -1.39844
H          0.20947        2.38533       -1.30225
C          1.72421        1.21046       -2.02578
C          3.16959        0.85908       -1.68599
N          1.20858        2.26837       -1.15479
N          3.27516        0.18374       -0.38380
