28
1sa1msa1eda_167.log	Energy: -975713.4242527
S          0.65361       -1.19979        0.29793
O          1.84293       -2.04562        0.48544
O         -0.16387       -0.92674        1.47238
O          1.02738        0.07255       -0.43411
O         -0.23762       -2.03285       -0.74435
H          2.50408       -0.10607       -0.87288
H         -1.11044       -1.59314       -0.83183
S         -3.21829        0.37749       -0.05369
O         -2.58062       -0.56356       -0.97390
O         -4.12950       -0.13390        0.94623
O         -3.99519        1.46676       -0.98085
H         -4.57436        0.99170       -1.59506
C         -2.02568        1.47008        0.66038
H         -1.40347        0.84803        1.31010
H         -1.42359        1.88892       -0.14507
H         -2.56410        2.23665        1.21703
H          4.11811        2.07628       -1.24710
H          5.01487        2.36623        0.24382
H          5.43777        0.08740       -0.21981
H          4.15985        0.04621        1.02040
H          3.86326       -0.46663       -1.86514
H          3.38725       -1.41394       -0.55428
H          2.80403        3.24369        0.49570
H          2.12661        1.75118        0.29827
C          4.14695        1.84062       -0.16653
C          4.39979        0.34708       -0.00138
N          2.96952        2.24845        0.57976
N          3.52485       -0.45411       -0.90597
