33
1sa1msa1ma1dma_159.log	Energy: -1001149.1097795
S         -1.80099       -1.34220        0.31437
O         -1.56896       -2.43691        1.24125
O         -2.39208       -0.12157        0.90470
O         -0.64504       -0.97356       -0.55028
O         -2.87485       -1.87329       -0.78822
H         -3.49350       -2.45908       -0.33166
S          2.56958       -0.30359       -0.18134
O          2.83167       -0.48969        1.23655
O          1.88507        0.93819       -0.56858
O          1.81006       -1.54016       -0.79008
H          0.80436       -1.44432       -0.66084
C          4.08990       -0.42520       -1.08774
H          4.73968        0.37211       -0.72603
H          4.52931       -1.40143       -0.88398
H          3.87343       -0.30269       -2.14822
N         -1.06729        1.76259       -1.84723
H         -0.55766        2.15697       -2.63057
C         -2.50835        1.76898       -2.10753
H         -2.80615        1.23269       -3.01913
H         -3.02048        1.30070       -1.26250
H         -2.86440        2.80136       -2.18829
H         -0.74721        0.80264       -1.73724
N         -0.35246        1.71816        1.07027
C         -0.66894        3.16040        1.05147
C          0.22906        1.23071        2.34147
H         -1.21145        1.15897        0.87856
H          0.24161        3.72764        1.25098
H         -1.05092        3.39110        0.05734
H         -1.41572        3.37167        1.81821
H          1.17988        1.73359        2.51873
H         -0.47438        1.43264        3.14986
H          0.40275        0.15833        2.26180
H          0.29463        1.50113        0.29440
