38
1sa1msa1dma1eda_332.log	Energy: -1060541.3702286
S         -2.23689       -0.57153       -0.70037
O         -1.20911       -0.99872       -1.68527
O         -2.22158       -1.37247        0.52403
O         -2.25579        0.88353       -0.44893
O         -3.64611       -0.81527       -1.45707
H         -3.65502       -1.72288       -1.79140
S          1.73749       -1.64599        0.26723
O          1.46011       -2.95411        0.82210
O          1.28060       -0.47637        1.04605
O          1.23639       -1.50875       -1.21412
H          0.22950       -1.35589       -1.32165
C          3.47966       -1.44373       -0.00471
H          3.96318       -1.59628        0.96066
H          3.80174       -2.19951       -0.72059
H          3.66523       -0.43254       -0.37067
N         -0.89204        0.95915        1.96210
C         -0.25901        2.26610        2.25169
C         -1.58633        0.32911        3.10725
H         -1.54464        1.05763        1.15661
H          0.54420        2.11880        2.97569
H          0.12244        2.67422        1.30939
H         -1.01187        2.93939        2.66561
H         -0.86313        0.15185        3.90452
H         -2.37256        0.99930        3.45761
H         -2.01580       -0.61030        2.76080
H         -0.16437        0.30771        1.61383
H          2.58538        2.96822       -1.98991
H          2.69168        1.21818       -2.02010
H          0.48061        1.84573       -2.72713
H          0.39417        0.98620       -1.20098
H          0.10329        3.88058       -1.47530
H         -1.01117        2.77694       -1.01024
H          2.47659        2.96034        0.32171
H          2.26314        1.35100        0.42499
C          2.22779        2.05938       -1.48981
C          0.71446        1.92638       -1.65438
N          2.72448        2.07931       -0.11565
N         -0.01925        3.00089       -0.98186
