41
1sa1msa1tma1eda_176.log	Energy: -1085205.9932670
S          1.15789       -1.78951       -0.26065
O          0.18661       -2.85250        0.05956
O          2.52320       -2.21572       -0.53200
O          0.67592       -1.12448       -1.65086
O          1.08634       -0.67840        0.74540
H         -0.27509       -0.88938       -1.55330
H          2.34079        0.33199        0.59371
S         -2.63802       -0.89282        0.18856
O         -4.06661       -0.67116        0.12723
O         -1.81553       -0.36317       -0.91319
O         -2.39016       -2.44828        0.30145
H         -1.40984       -2.65460        0.19750
C         -1.99490       -0.24512        1.71036
H         -2.18011        0.83321        1.67561
H         -2.53614       -0.72013        2.52873
H         -0.92469       -0.46405        1.74461
H         -0.55127        4.18891       -0.25357
H         -0.22735        3.30118       -1.73525
H         -2.62222        3.67631       -1.54066
H         -2.27426        1.94376       -1.41145
H         -2.99674        3.69388        0.81309
H         -3.71875        2.31753        0.31145
H         -0.33450        2.15990        0.95453
H         -0.04836        1.30056       -0.36895
C         -0.67630        3.21192       -0.73904
C         -2.16726        2.90431       -0.90040
N          0.08517        2.22804        0.03077
N         -2.82011        2.78055        0.40646
N          3.22433        0.88508        0.39365
C          3.21134        1.14813       -1.06895
H          3.16391        0.19169       -1.59029
H          2.32326        1.73931       -1.29339
H          4.11913        1.69207       -1.34063
C          3.17212        2.14446        1.17351
H          2.26602        2.67674        0.87552
H          3.12932        1.89852        2.23555
H          4.07036        2.73056        0.96409
C          4.36518        0.02034        0.78686
H          4.30168       -0.17206        1.85837
H          4.28117       -0.92234        0.24535
H          5.30072        0.53337        0.55223
