38
1sa1msa1dma1eda_303.log	Energy: -1060541.7566552
S          0.99026       -0.07582       -0.64838
O         -0.48917       -0.04839       -0.82865
O          1.74030       -0.80324       -1.66208
O          1.45566        1.33958       -0.46727
O          1.18667       -0.79681        0.74668
H          0.20272        2.18785       -0.08274
H          2.17517       -1.08612        0.87608
S         -3.49733       -0.76633        0.17232
O         -3.81555        0.38755       -0.66550
O         -3.13476       -0.49305        1.55917
O         -2.40778       -1.66821       -0.52379
H         -1.55633       -1.12466       -0.67145
C         -4.85768       -1.90847        0.13548
H         -5.70243       -1.40762        0.60912
H         -5.07984       -2.14466       -0.90462
H         -4.57502       -2.80115        0.69270
N         -0.62222        2.79146        0.24644
C         -1.13725        2.22938        1.52113
C         -1.64410        2.88404       -0.82708
H         -0.22904        3.71549        0.41989
H         -1.52317        1.22748        1.33481
H         -0.31502        2.17722        2.23499
H         -1.93783        2.86583        1.90172
H         -2.07206        1.89443       -0.98361
H         -2.42518        3.58229       -0.52087
H         -1.15714        3.22934       -1.73920
H          5.43318       -2.04074        0.00743
H          3.93097       -1.89174       -0.94113
H          5.36569        0.06084       -1.31494
H          3.86368        0.52736       -0.51675
H          6.49204        0.35549        0.75783
H          5.40758        1.57920        0.78948
H          3.62995       -2.53479        1.45218
H          4.11837       -1.01039        1.83660
C          4.49320       -1.47931       -0.10011
C          4.80331       -0.01271       -0.37388
N          3.66977       -1.57723        1.11678
N          5.50088        0.57096        0.77643
