27
1sa1msa1a1ma_155.log	Energy: -951822.8937577
S         -2.14098       -0.88766       -0.08763
O         -1.72075       -2.27559       -0.25468
O         -2.42681       -0.50928        1.32105
O         -1.29480        0.11534       -0.76302
O         -3.56344       -0.73090       -0.87529
H         -4.12429       -1.47566       -0.62077
S          2.54387       -0.58279        0.10362
O          1.86190        0.09292        1.19826
O          3.77078       -1.31043        0.36805
O          2.89963        0.57975       -0.97913
H          3.82302        0.46660       -1.24672
C          1.38868       -1.56724       -0.80241
H          0.98077       -2.31266       -0.11748
H          0.57952       -0.91725       -1.14492
H          1.92265       -2.03901       -1.62698
N         -0.59285        1.38536        1.93935
H          0.30867        0.93587        1.73232
H         -0.58423        1.77353        2.87733
H         -0.77643        2.13408        1.19317
H         -1.34471        0.65609        1.83535
N         -1.05297        2.95927       -0.27507
H         -1.47836        2.14348       -0.72061
C          0.21137        3.27730       -0.94880
H          0.08940        3.50681       -2.01396
H          0.68534        4.13289       -0.46007
H          0.88631        2.42208       -0.86295
H         -1.70555        3.73304       -0.34408
