36
1sa1msa1ma1tma_42.log	Energy: -1025816.1067615
S          0.29889       -1.72282       -0.22951
O         -0.73994       -2.54611       -0.84561
O          1.08478       -0.89969       -1.19678
O         -0.25796       -0.85144        0.85523
O          1.33671       -2.69347        0.44889
H          2.29628       -2.31640        0.34106
S          0.37517        2.48671       -0.17643
O         -0.98979        2.01677       -0.42122
O          0.69206        3.87844       -0.42225
O          1.39294        1.62202       -1.01574
H          1.15194        0.63360       -1.07927
C          0.79463        2.07979        1.50604
H          0.14360        2.67078        2.15201
H          0.62482        1.00904        1.64164
H          1.83721        2.35376        1.66968
N          3.71732       -1.67581        0.06942
H          4.49383       -2.29687        0.27396
C          3.86545       -0.39256        0.76923
H          4.83193        0.09054        0.58750
H          3.07517        0.27966        0.43060
H          3.74566       -0.55454        1.84316
H          3.69637       -1.52665       -0.93603
N         -2.84395       -0.43471        0.24364
C         -3.42110        0.70214        0.99907
H         -3.22856        0.54827        2.06177
H         -2.93700        1.61801        0.66202
H         -4.49806        0.74132        0.81903
C         -2.99267       -0.25762       -1.22614
H         -2.49835        0.67153       -1.50727
H         -2.50666       -1.10165       -1.71598
H         -4.05765       -0.22440       -1.46879
C         -3.39175       -1.73915        0.69292
H         -2.86108       -2.52890        0.16058
H         -3.21516       -1.84269        1.76401
H         -4.46337       -1.76921        0.48229
H         -1.80733       -0.47157        0.45471
