26
1sa1msa1dma_02.log	Energy: -941004.5475554
S          2.15079       -0.57845        0.11175
O          1.51217       -0.43574       -1.33250
O          3.57126       -0.67773       -0.04721
O          1.59943        0.49587        0.94728
O          1.60691       -1.94946        0.64075
H          0.39836        1.67372        0.55618
H          0.60484       -1.92484        0.74258
S         -1.82808       -0.81362        0.03340
O         -2.39257        0.20206        0.93033
O         -0.99743       -1.85366        0.68558
O         -1.06793       -0.14973       -1.10034
H          0.50631       -0.40886       -1.28612
C         -3.17523       -1.67860       -0.74213
H         -3.74101       -2.17813        0.04470
H         -3.79603       -0.94884       -1.26152
H         -2.75928       -2.40550       -1.43952
N         -0.26603        2.26407        0.01530
C          0.51592        3.02354       -0.98530
C         -1.09864        3.08467        0.92168
H         -0.84478        1.55097       -0.46851
H          1.19224        3.70405       -0.46711
H          1.09278        2.31629       -1.58219
H         -0.16521        3.58703       -1.62411
H         -0.44897        3.72292        1.52189
H         -1.77494        3.69775        0.32432
H         -1.67248        2.40750        1.55337
