30
1sa1msa1a1dma_76.log	Energy: -976493.2960140
S          1.06759        0.92975        0.58358
O          0.77552       -0.30388       -0.22253
O         -0.00054        1.26504        1.51975
O          2.42123        0.77937        1.19691
O          1.23966        2.10624       -0.44546
H          3.20856       -0.28214        0.48590
H          0.29198        2.46588       -0.73288
S         -2.78539       -0.81500       -0.18011
O         -3.85474       -1.74695       -0.47056
O         -2.68467        0.41433       -0.96790
O         -1.42805       -1.62215       -0.29245
H         -0.61645       -1.02020       -0.27413
C         -2.84017       -0.36287        1.54036
H         -3.76121        0.20127        1.69318
H         -2.85312       -1.28195        2.12637
H         -1.95925        0.24390        1.76464
N         -1.13669        2.92300       -1.06136
H         -1.72629        2.08585       -1.04035
H         -1.26915        3.37969       -1.95781
H         -1.46793        3.55019       -0.33481
N          3.72409       -1.05471       -0.08227
C          3.62916       -0.69676       -1.51961
C          3.11232       -2.36437        0.24958
H          4.69894       -1.04139        0.21353
H          2.57001       -0.65107       -1.77375
H          4.07628        0.28692       -1.66367
H          4.14689       -1.44499       -2.12253
H          2.05156       -2.29742        0.00870
H          3.59602       -3.15663       -0.32482
H          3.23101       -2.54406        1.31815
