35
1sa1msa1ma1eda_89.log	Energy: -1035890.3080463
S          0.49268       -1.66574        0.43293
O          0.79094       -0.83234        1.61980
O          0.11778       -0.76084       -0.71408
O          1.49473       -2.65423        0.08871
O         -0.83339       -2.50601        0.76799
H         -1.55510       -1.88566        1.00023
S         -2.84435        0.39702       -0.29673
O         -2.29029        1.74387       -0.11656
O         -2.80948       -0.47343        0.88160
O         -2.17857       -0.31449       -1.51649
H         -1.19658       -0.58292       -1.25296
C         -4.51264        0.54199       -0.87474
H         -4.50734        1.12685       -1.79403
H         -4.90266       -0.46107       -1.04456
H         -5.07499        1.05110       -0.09155
N          0.45829        1.77549        0.82405
H         -0.49013        1.85135        0.43071
H          0.53709        0.81772        1.23156
C          0.71606        2.82049        1.82979
H          1.70737        2.66779        2.25780
H          0.67006        3.80256        1.35778
H         -0.03126        2.76215        2.62130
H          1.16789        1.80618        0.02518
H          4.54756        1.73949       -1.30616
H          3.88964        2.24795        0.25843
H          4.82947       -0.03118        0.41038
H          3.08858       -0.07605        0.67799
H          4.49143       -1.09249       -1.64138
H          3.11464       -1.63699       -0.90877
H          2.41770        2.53642       -1.80854
H          2.21719        0.91008       -1.71704
C          3.74844        1.54974       -0.57553
C          3.85663        0.10544       -0.08198
N          2.41613        1.75030       -1.16627
N          3.62865       -0.80866       -1.19469
