28
1sa1msa1eda_128.log	Energy: -975722.6746898
S         -2.09190        1.27580        0.11533
O         -2.86634        0.22711       -0.56740
O         -2.67307        1.80648        1.33845
O         -0.65384        0.88424        0.21854
O         -1.99185        2.53180       -0.93233
H         -2.81933        3.02669       -0.86762
S          2.80072        0.11084        0.01436
O          2.51644       -0.67779        1.20365
O          2.34208       -0.37062       -1.27990
O          4.41320        0.25875       -0.08621
H          4.80645       -0.22610        0.65390
C          2.30118        1.79427        0.22869
H          1.20634        1.78221        0.28051
H          2.74030        2.16320        1.15523
H          2.65226        2.35943       -0.63466
H          0.03317       -3.45030       -0.22281
H          0.48710       -2.15177        0.91850
H         -1.70578       -3.37967        1.49042
H         -1.85840       -1.62876        1.35122
H         -3.25505       -3.49656       -0.15560
H         -3.19560       -1.86106       -0.40109
H          0.60156       -1.46629       -1.43660
H         -1.07510       -1.74328       -1.52722
C         -0.25825       -2.48257        0.19292
C         -1.66856       -2.54585        0.78353
N         -0.28106       -1.50189       -0.92241
N         -2.64059       -2.70673       -0.29627
H         -0.44673       -0.52852       -0.53765
