30
1sa1msa1a1dma_135.log	Energy: -976473.0716285
S         -0.97951       -1.09705       -0.50846
O         -0.27622        0.00017       -1.17678
O         -2.14362       -1.66070       -1.15046
O          0.04001       -2.27684       -0.28271
O         -1.33347       -0.60364        0.92557
H          0.91053       -1.91434        0.03765
H         -2.26085       -1.01613        1.24411
S          2.95786        0.07625        0.06032
O          3.87044       -0.15865       -1.03632
O          2.23044       -1.07639        0.61737
O          1.90448        1.20716       -0.29826
H          1.06146        0.80238       -0.64776
C          3.80689        0.88522        1.39079
H          4.58243        0.19877        1.73163
H          4.24871        1.80177        1.00022
H          3.09001        1.09450        2.18352
N         -3.62410       -1.59044        1.52384
H         -4.28937       -0.90565        1.86975
H         -3.62987       -2.38865        2.15133
H         -3.93499       -1.90314        0.60595
N         -2.29062        2.46928       -0.66927
C         -3.56697        1.96081       -0.21026
C         -1.43620        2.91296        0.41792
H         -1.80627        1.76001       -1.20833
H         -4.15713        2.77933        0.21816
H         -4.12657        1.54821       -1.05410
H         -3.47511        1.17578        0.56591
H         -1.89654        3.77460        0.91531
H         -1.25388        2.13386        1.17933
H         -0.47187        3.23691        0.01746
