27
1sa1msa1a1ma_99.log	Energy: -951830.5469385
S         -0.86356       -0.74947       -0.39129
O          0.40877       -1.15222       -1.02583
O         -2.02995       -0.71992       -1.27696
O         -1.12459       -1.47808        0.87460
O         -0.67146        0.80832        0.01939
H          0.24016        0.93818        0.38306
S          3.02860        0.32052        0.29269
O          4.31232        0.47187        0.93656
O          1.87840        1.05144        0.84354
O          2.69155       -1.22554        0.25328
H          1.78279       -1.35177       -0.15032
C          3.14953        0.74524       -1.43201
H          3.34142        1.81719       -1.48938
H          3.97528        0.17961       -1.86310
H          2.20196        0.48908       -1.90919
N         -3.81023       -1.22385        0.82935
H         -3.93051       -1.48943       -0.14844
H         -4.49674       -1.67196        1.42784
H         -2.82308       -1.49592        1.06619
H         -3.82654       -0.12984        0.88108
N         -3.53012        1.47498        0.74656
H         -3.89343        2.08675        1.47118
C         -3.95614        1.93283       -0.58686
H         -3.69602        2.97856       -0.78157
H         -3.46462        1.30521       -1.33328
H         -5.03928        1.81879       -0.68588
H         -2.51027        1.51540        0.79474
