40
1sa1msa2eda_180.log	Energy: -1095281.5394551
S          0.92508        0.59252       -0.89308
O         -0.47736        0.56704       -1.40251
O          1.91124        1.07780       -1.84803
O          0.96962        1.31416        0.41596
O          1.23838       -0.93434       -0.58198
H         -0.47382        1.56903        1.04877
H          2.27051       -1.10342       -0.53858
S         -2.40600       -1.82746        0.30088
O         -3.71875       -2.42844        0.41494
O         -1.95899       -0.89591        1.34161
O         -2.34014       -1.11143       -1.10658
H         -1.52562       -0.49985       -1.19801
C         -1.16609       -3.09260        0.15885
H         -1.14108       -3.62703        1.10926
H         -1.45596       -3.75879       -0.65353
H         -0.21286       -2.59920       -0.04303
H         -2.70905        3.46070        1.62608
H         -1.14855        3.79842        0.83212
H         -3.02991        3.68611       -0.83111
H         -1.82937        2.41641       -1.11227
H         -4.53815        2.03248       -0.17813
H         -3.53148        0.97523       -0.94771
H         -1.27527        1.85895        2.49412
H         -2.05853        1.02815        1.29305
C         -1.96183        3.07544        0.92697
C         -2.60608        2.75986       -0.42452
N         -1.41203        1.81581        1.48727
N         -3.58594        1.69814       -0.24053
H          5.65730       -0.34864       -0.65669
H          4.22212        0.49024       -1.30260
H          4.93649        1.52074        0.81349
H          3.33590        0.79412        0.97100
H          5.82595       -0.29678        2.05949
H          4.39722       -0.04500        2.81348
H          4.05033       -1.98077       -1.27727
H          4.03885       -1.89763        0.37014
C          4.58860       -0.14627       -0.49399
C          4.39755        0.56347        0.84083
N          3.80498       -1.39404       -0.48578
N          4.81938       -0.31776        1.93433
