35
1sa1msa1ma1eda_217.log	Energy: -1035883.5379847
S          0.39132       -1.41236       -0.37697
O         -0.89309       -2.13179       -0.53561
O          1.53754       -2.04191       -1.01572
O          0.21356       -0.01895       -1.19432
O          0.61871       -1.01116        1.03703
H         -0.63666        0.39192       -0.90695
H          1.74453        0.14814        1.34811
S         -3.33690        0.25760        0.09306
O         -4.35043        0.39010       -0.93325
O         -2.05496        0.95527       -0.11735
O         -3.05969       -1.24729        0.43666
H         -2.17427       -1.60244        0.05173
C         -4.00217        0.81821        1.64233
H         -4.25204        1.87235        1.51918
H         -4.89724        0.23449        1.85705
H         -3.24646        0.67878        2.41445
N          2.04394        2.30514       -0.87709
H          2.87618        2.65112       -1.34315
C          0.96095        3.29415       -0.89326
H          0.68024        3.61579       -1.90295
H          0.07617        2.86033       -0.42028
H          1.25747        4.17648       -0.31909
H          1.75383        1.46429       -1.37519
H          4.55893        1.12606        1.52418
H          3.89570       -0.09707        2.63418
H          5.06513       -1.19577        0.77538
H          3.34481       -1.57637        0.74029
H          4.81309       -0.21757       -1.26105
H          3.28744       -0.84465       -1.29652
H          2.21716        1.49794        2.22923
H          2.39897        1.49977        0.54096
C          3.82791        0.31866        1.62472
C          4.07130       -0.77265        0.58448
N          2.47428        0.90465        1.44381
N          3.92823       -0.25433       -0.77189
