23
1sa1msa1ma_50.log	Energy: -916325.4646719
S         -1.84256        0.94747        0.05631
O         -1.53964        2.36840        0.07129
O         -3.22189        0.49843        0.12488
O         -1.34014        0.35043       -1.38911
O         -0.95381        0.20100        1.03999
H         -0.40865        0.60245       -1.51911
H         -0.98379       -1.23604        0.84588
S          2.14828       -0.02411       -0.07480
O          1.84071       -1.36257        0.40191
O          1.52237        0.46419       -1.29886
O          3.74582        0.01347       -0.33530
H          3.90273        0.39578       -1.21134
C          1.96096        1.14992        1.23591
H          0.89575        1.13875        1.48799
H          2.58346        0.82416        2.06933
H          2.26893        2.12465        0.85825
N         -0.89651       -2.30734        0.58716
H          0.05670       -2.39366        0.22386
C         -1.93406       -2.68558       -0.40404
H         -1.81858       -3.73120       -0.69110
H         -2.91368       -2.51191        0.03964
H         -1.82766       -2.02725       -1.26558
H         -0.95998       -2.86103        1.43826
