35
1sa1msa1ma1eda_173.log	Energy: -1035885.5325863
S          1.19151       -2.12361       -0.03731
O         -0.05691       -2.50520       -0.68200
O          2.13307       -1.35427       -0.89733
O          1.04086       -1.49148        1.29075
O          1.93682       -3.54092        0.21508
H          2.82164       -3.36007        0.56027
S          1.40655        2.00753       -0.17919
O          1.35808        2.28759        1.24974
O          0.16649        1.48988       -0.77426
O          2.60851        1.08051       -0.54488
H          2.36043        0.07752       -0.65503
C          1.88544        3.48444       -1.04087
H          2.84977        3.80785       -0.64912
H          1.94880        3.25937       -2.10485
H          1.11908        4.23435       -0.84327
N         -1.15811        0.17424        1.40963
H         -1.94233       -0.42545        1.05880
H         -0.32354       -0.43848        1.50975
C         -1.46849        0.91207        2.64636
H         -0.60166        1.51406        2.91930
H         -2.32615        1.55846        2.45967
H         -1.69691        0.20231        3.44178
H         -0.93783        0.82184        0.64046
H         -4.83200        0.01605       -1.39379
H         -3.68787        1.19817       -2.03306
H         -2.89687       -1.13529       -2.30392
H         -1.77803       -0.13197       -1.38579
H         -3.65233       -2.03780       -0.16445
H         -2.01868       -2.17196       -0.28375
H         -4.28159        2.04031        0.01722
H         -4.16941        0.60890        0.78544
C         -3.84036        0.47038       -1.23054
C         -2.76497       -0.60346       -1.35177
N         -3.75309        1.17567        0.05312
N         -2.78719       -1.50567       -0.19239
