35
1sa1msa1ma1eda_272.log	Energy: -1035876.8493989
S         -0.81728        0.17982       -1.07391
O          0.50295        0.51484       -1.64724
O         -1.86568       -0.19016       -2.01465
O         -0.61082       -1.13868       -0.17628
O         -1.25981        1.24855       -0.12138
H          0.23298       -1.06623        0.34015
H         -2.74090        1.14750        0.21300
S          3.03064       -0.97879        0.28778
O          3.77029       -2.20983        0.45638
O          1.75631       -0.81519        1.01197
O          2.75074       -0.79046       -1.25924
H          1.90516       -0.27978       -1.42733
C          4.05677        0.40668        0.69638
H          4.26356        0.34019        1.76560
H          4.97829        0.31266        0.12123
H          3.50635        1.32490        0.44584
N          1.88763        2.72607        0.08681
H          1.98691        3.67403       -0.25929
C          1.27531        2.71687        1.41395
H          0.28449        3.18969        1.45970
H          1.16331        1.67943        1.74063
H          1.93626        3.22481        2.12429
H          1.29703        2.22441       -0.57273
H         -5.51862        0.03917       -0.15853
H         -4.11760       -0.07356       -1.27785
H         -4.50487       -2.21124        0.04089
H         -2.90575       -1.50686        0.26937
H         -5.06781       -1.53557        2.22125
H         -3.45398       -1.69667        2.44029
H         -4.24388        1.95296        0.26394
H         -3.86382        0.84883        1.47350
C         -4.43432       -0.08306       -0.23457
C         -3.96961       -1.35722        0.47013
N         -3.79284        1.06469        0.46741
N         -4.16215       -1.19894        1.91467
