26
1sa1msa1dma_47.log	Energy: -940989.5150138
S         -2.05624       -0.86087       -0.09750
O         -1.70971       -1.89905       -1.06407
O         -1.07146       -0.62154        0.97067
O         -2.49651        0.42159       -0.71951
O         -3.35751       -1.41178        0.71826
H         -3.93719       -1.84762        0.07971
S          2.36050       -0.39900        0.06255
O          1.64450        0.49421       -0.85807
O          2.67998        0.06729        1.39089
O          3.75973       -0.74449       -0.68277
H          3.72015       -0.39745       -1.58547
C          1.57284       -1.98005        0.13305
H          0.62506       -1.82099        0.65627
H          1.38368       -2.32094       -0.88463
H          2.23777       -2.65173        0.67584
N         -0.54397        2.12812       -0.08855
C         -0.53238        3.32162       -0.95618
C         -0.46803        2.41493        1.36165
H         -1.40096        1.54041       -0.29699
H          0.39772        3.87248       -0.80725
H         -0.61236        3.00027       -1.99471
H         -1.38397        3.95484       -0.70346
H          0.47431        2.91953        1.58094
H         -1.31031        3.04955        1.64128
H         -0.52569        1.46253        1.88759
H          0.24455        1.51143       -0.34434
