36
1sa1msa1ma1tma_123.log	Energy: -1025798.0430732
S          1.66570        0.04450       -0.69563
O          2.70652        1.05921       -0.94034
O          0.51048        0.10727       -1.60018
O          2.25194       -1.32509       -0.59723
O          1.15027        0.41083        0.78049
H          3.82045       -1.12014       -0.14048
H          0.31018       -0.08010        0.96098
S         -2.15048       -1.41160        0.21487
O         -3.43445       -0.91704        0.66796
O         -0.97243       -1.19722        1.06509
O         -1.86158       -0.89110       -1.24295
H         -0.95799       -0.45261       -1.32754
C         -2.28656       -3.16242       -0.06471
H         -2.51903       -3.62686        0.89398
H         -3.09157       -3.32947       -0.78026
H         -1.33424       -3.52285       -0.45341
N          4.61813       -0.48318        0.15692
H          5.51964       -0.82504       -0.16536
C          4.56024       -0.25748        1.62206
H          5.30355        0.48456        1.91144
H          3.55819        0.10344        1.85725
H          4.74286       -1.19987        2.13713
H          4.33527        0.37675       -0.35223
N         -1.65950        2.02881        0.15938
C         -1.83420        2.17067        1.59288
H         -2.55299        1.42854        1.95110
H         -0.87831        1.99945        2.09793
H         -2.19846        3.17875        1.87617
C         -0.66348        2.95725       -0.34457
H          0.28816        2.79583        0.16798
H         -0.50230        2.78286       -1.41172
H         -0.96635        4.01384       -0.20052
C         -2.92170        2.19067       -0.54097
H         -2.77154        2.01835       -1.61089
H         -3.64392        1.45622       -0.17639
H         -3.34748        3.20545       -0.40789
