40
1sa1msa2eda_132.log	Energy: -1095291.2039041
S          2.05766       -1.37478       -0.00559
O          3.50901       -1.40749        0.06469
O          1.42162       -0.78086        1.21514
O          1.62454       -0.43123       -1.22274
O          1.37754       -2.65274       -0.35998
H          2.15995        0.44476       -1.18038
H         -0.03840       -2.22955       -1.11635
S         -2.67603        1.09031       -0.22204
O         -3.76476        0.81621       -1.16224
O         -1.32332        0.70678       -0.75526
O         -2.88516        0.45482        1.12289
H         -1.81553       -0.62830        1.49083
C         -2.57350        2.84021        0.07537
H         -3.49160        3.14989        0.57505
H         -1.69053        3.01819        0.69432
H         -2.47558        3.33564       -0.89110
H         -2.90795       -1.83809       -0.43092
H         -2.28114       -3.45234       -0.81967
H         -2.29691       -3.15277        1.56783
H         -0.61854       -3.33118        0.99282
H         -1.07680       -1.56432        2.68721
H         -0.13421       -1.10319        1.40674
H         -1.23637       -1.99988       -2.29493
H         -1.00204       -0.79787       -1.15807
C         -2.01618       -2.47080       -0.42148
C         -1.49532       -2.67934        0.99701
N         -1.00395       -1.85256       -1.31528
N         -1.11592       -1.41527        1.68066
H          1.89982        3.84813       -0.06130
H          2.22151        3.50503        1.62800
H          4.17514        2.89952        0.39661
H          3.42616        1.40658        0.99041
H          3.11814        2.39947       -1.75700
H          4.07378        1.16056       -1.27325
H          0.47061        1.96857       -0.17649
H          0.94808        1.41190        1.25668
C          2.03836        3.02889        0.65724
C          3.30046        2.24157        0.29340
N          0.79861        2.27296        0.73582
N          3.21663        1.66538       -1.06038
