27
1sa1msa1a1ma_112.log	Energy: -951827.6825836
S          2.08459       -0.83337       -0.12010
O          1.75366       -1.99648       -0.93912
O          2.48586        0.36568       -0.89965
O          1.09818       -0.50378        0.92659
O          3.40330       -1.24261        0.75387
H          4.02752       -1.67209        0.15419
S         -2.30329       -0.43453       -0.05353
O         -2.50140        0.17819        1.24316
O         -1.68348        0.34147       -1.12984
O         -3.76965       -0.85478       -0.60847
H         -3.83029       -0.58935       -1.53730
C         -1.51563       -2.00691        0.12950
H         -0.54329       -1.80750        0.58953
H         -2.15345       -2.61837        0.76791
H         -1.38320       -2.44636       -0.85876
N          0.00445        1.86629        2.23017
H          0.60013        1.03798        2.26186
H         -0.95405        1.53067        2.29834
H          0.20051        2.44763        3.03721
H          0.33107        2.20812        0.54041
N          0.48234        2.16682       -0.50883
H          1.32571        1.56559       -0.67812
C          0.60931        3.50142       -1.11883
H          0.76121        3.40064       -2.19363
H         -0.29537        4.07962       -0.92758
H          1.46680        4.01174       -0.68024
H         -0.31544        1.63754       -0.88135
