27
1sa1msa1a1ma_186.log	Energy: -951813.2604770
S         -1.89449        0.58620       -0.18003
O         -0.61984        1.10655        0.30694
O         -2.90722        1.50702       -0.63628
O         -1.61305       -0.39793       -1.38493
O         -2.46011       -0.33471        0.94765
H         -0.81553       -0.95858       -1.19003
H         -3.49124       -0.46476        0.81024
S          1.78403       -1.26174       -0.11539
O          2.67666       -0.59509       -1.04250
O          0.53135       -1.81526       -0.65215
O          1.44007       -0.33053        1.11913
H          0.67038        0.26561        0.89352
C          2.64929       -2.55276        0.73540
H          2.96071       -3.27284       -0.02169
H          3.51653       -2.10910        1.22434
H          1.97232       -3.00782        1.45708
N         -5.01360       -0.47578        0.50478
H         -5.15213        0.39405       -0.00564
H         -5.61333       -0.46536        1.32363
H         -5.30676       -1.24131       -0.09431
N          3.70300        2.39007       -0.22779
H          3.78242        2.97487       -1.05245
C          2.60591        2.85093        0.61923
H          1.60996        2.80909        0.15316
H          2.57665        2.24510        1.52963
H          2.79365        3.88459        0.92517
H          3.52366        1.44558       -0.55548
