30
1sa1msa1a1dma_41.log	Energy: -976497.2340751
S         -1.56130       -1.47858       -0.08100
O         -2.76923       -0.95479       -0.72509
O         -0.68784       -2.28149       -0.93364
O         -0.84025       -0.42639        0.69569
O         -2.05716       -2.46027        1.12511
H         -2.37819       -3.27962        0.72495
S          2.47554       -0.18563       -0.02455
O          3.81600        0.14908        0.40561
O          1.69357        0.83840       -0.73303
O          1.66424       -0.63504        1.25754
H          0.66917       -0.64015        1.06985
C          2.50190       -1.64550       -1.03425
H          3.02719       -1.38929       -1.95507
H          3.03841       -2.41913       -0.48482
H          1.46844       -1.94227       -1.23086
N         -3.29606        1.88102       -0.28947
H         -3.80604        2.29978       -1.06090
H         -3.83761        2.04621        0.55344
H         -3.27575        0.86587       -0.44447
N         -0.54561        2.30510       -0.03364
C         -0.07667        3.38885       -0.91791
C         -0.26587        2.53399        1.39965
H         -1.59266        2.15996       -0.15534
H          1.00314        3.49498       -0.81099
H         -0.31229        3.12834       -1.94990
H         -0.58055        4.31834       -0.64658
H          0.81146        2.62459        1.54553
H         -0.76784        3.44869        1.72040
H         -0.64417        1.67672        1.95558
H         -0.06970        1.43142       -0.30288
