35
1sa1msa1ma1eda_213.log	Energy: -1035883.7270721
S         -1.02582        1.68715       -0.58984
O         -0.45248        0.56716       -1.41382
O         -0.50740        3.00459       -0.93441
O         -2.50712        1.55520       -0.60578
O         -0.60618        1.36814        0.90532
H         -2.95391        0.06522       -0.69113
H          0.21265        1.97044        1.18948
S          1.98271       -1.47766       -0.12548
O          0.89386       -2.42727       -0.34961
O          2.19455       -1.00141        1.23545
O          1.87006       -0.27611       -1.13027
H          0.89752        0.09310       -1.22876
C          3.50137       -2.19313       -0.71604
H          3.35584       -2.51492       -1.74660
H          4.28580       -1.43988       -0.64664
H          3.72635       -3.04235       -0.07009
N          1.37381        2.91997        1.45612
H          1.07529        3.76058        0.96714
C          2.61471        2.39145        0.86832
H          3.46010        3.08105        0.97145
H          2.85224        1.43682        1.34096
H          2.44024        2.19927       -0.19161
H          1.50227        3.15373        2.43543
H         -2.52455       -2.91412       -0.64114
H         -1.31386       -1.64841       -1.01007
H         -1.10940       -2.51433        1.34852
H         -1.41843       -0.78533        1.26400
H         -3.30552       -2.83087        2.12722
H         -3.08631       -1.31128        2.68732
H         -3.73025       -1.13782       -1.60117
H         -3.96945       -1.06935        0.06411
C         -2.17858       -1.90463       -0.40068
C         -1.86372       -1.76807        1.08556
N         -3.29028       -0.95635       -0.70293
N         -3.11665       -1.87498        1.84663
