27
1sa1msa1a1ma_92.log	Energy: -951830.5620050
S         -1.38322       -0.87161       -0.16202
O         -1.11699       -1.42944        1.18705
O         -0.97923        0.57352       -0.22940
O         -0.78362       -1.68910       -1.23087
O         -2.93088       -0.86854       -0.41523
H         -3.35560       -0.05454        0.07089
S          2.54146        0.63835       -0.09161
O          2.58946        0.50024       -1.53576
O          2.70429       -0.60554        0.69005
O          1.27313        1.40709        0.38899
H          0.34861        0.99560        0.09596
C          3.79435        1.76713        0.46313
H          4.75641        1.31685        0.21771
H          3.66076        2.70986       -0.06659
H          3.68920        1.90017        1.53916
N          1.08418       -2.79428        0.38683
H          1.44068       -3.73587        0.51117
H          0.33393       -2.54360        1.06181
H          1.82834       -2.06868        0.47161
H          0.60105       -2.65854       -0.52353
N         -3.82380        1.29795        0.73606
H         -4.73593        1.28290        1.18107
C         -3.74264        2.34853       -0.29029
H         -3.90027        3.35550        0.11197
H         -2.75569        2.29187       -0.75282
H         -4.49336        2.15232       -1.05879
H         -3.13209        1.46283        1.46257
