38
1sa1msa1dma1eda_356.log	Energy: -1060535.9206477
S         -0.09684        0.56029       -0.82146
O         -1.23941        0.81437       -1.68451
O          0.88169        1.66242       -0.71628
O         -0.47152        0.02327        0.52057
O          0.67624       -0.67244       -1.54120
H         -1.07551       -1.44536        0.32549
H          1.55123       -0.78820       -1.09958
S          3.85839        0.22193        0.25634
O          4.88286        0.49283       -0.73116
O          2.91381       -0.87514       -0.02271
O          3.04507        1.51669        0.62310
H          2.16885        1.58485        0.10064
C          4.62706       -0.10012        1.82453
H          5.24774       -0.98769        1.69910
H          5.24055        0.76334        2.08159
H          3.84819       -0.26486        2.56795
N         -1.28379       -2.48701        0.23461
C         -1.77125       -2.78892       -1.13636
C         -2.23043       -2.88259        1.30395
H         -0.37790       -2.93387        0.37655
H         -2.72791       -2.28081       -1.25458
H         -1.04543       -2.40007       -1.85021
H         -1.88825       -3.86880       -1.24539
H         -3.15323       -2.32721        1.12455
H         -2.40438       -3.95919        1.25785
H         -1.80411       -2.60895        2.26943
H         -4.38326        0.06441        1.80982
H         -2.68266        0.46011        1.51507
H         -3.92590        2.53489        1.78245
H         -3.36873        2.38519        0.10943
H         -6.11444        1.96259        1.03537
H         -5.57949        2.95025       -0.15195
H         -4.60991       -0.17799       -0.57663
H         -3.02091        0.08386       -0.78239
C         -3.68690        0.50520        1.08194
C         -4.06278        1.96899        0.84744
N         -3.70344       -0.31174       -0.13254
N         -5.41896        2.05972        0.30307
