38
1sa1msa1dma1eda_44.log	Energy: -1060562.9784167
S          2.92216        0.69339       -0.19302
O          3.55153       -0.51678       -0.72019
O          2.60404        1.74164       -1.16317
O          1.75526        0.39079        0.69924
O          3.96594        1.33559        0.88255
H          4.79518        1.51443        0.41873
S         -2.39349       -1.09999        0.08901
O         -2.92537       -0.06142        0.99201
O         -1.77763       -2.26194        0.78969
O         -1.46018       -0.54281       -0.93742
C         -3.78538       -1.75771       -0.81349
H         -3.42396       -2.52441       -1.49880
H         -4.48557       -2.18157       -0.09325
H         -4.24775       -0.93807       -1.36440
N          0.91069       -2.21616        0.25482
C          1.06442       -2.53860       -1.18288
C          1.77014       -3.02064        1.14612
H          1.15545       -1.21523        0.39928
H          0.82621       -3.59283       -1.33506
H          0.36526       -1.91296       -1.73759
H          2.09121       -2.32230       -1.47948
H          1.54370       -4.07896        1.00774
H          2.81371       -2.81993        0.89923
H          1.57292       -2.73273        2.17871
H         -0.09880       -2.30792        0.51878
H         -1.42592        1.81308        1.52081
H         -0.33678        3.21414        1.36780
H         -2.73115        3.85204        1.18524
H         -1.83685        4.25375       -0.28471
H         -3.41790        1.78631       -0.02315
H         -3.84645        3.11707       -0.91094
H          0.46355        1.35379        0.13096
H         -0.96821        1.15630       -0.68776
C         -1.06163        2.58849        0.84305
C         -2.22235        3.41661        0.31100
N         -0.35484        1.87615       -0.25009
N         -3.06528        2.59130       -0.53914
H         -0.00054        2.50321       -0.97172
