38
1sa1msa1dma1eda_02.log	Energy: -1060568.2811416
S         -0.58353        1.89128       -0.81353
O          0.69675        1.35348       -1.64377
O         -0.58788        3.32271       -1.03141
O         -1.75650        1.13752       -1.31610
O         -0.29855        1.48016        0.60459
H         -1.84033       -0.37511       -0.53111
H          1.27935        1.39435        0.92221
S          1.38577       -2.02599       -0.32054
O          0.40984       -2.34617        0.75595
O          2.59221       -1.31623        0.18053
O          0.73353       -1.33248       -1.46243
H          0.69768        0.36211       -1.64896
C          1.97833       -3.58343       -0.95179
H          2.44456       -4.12577       -0.12918
H          1.12633       -4.13617       -1.34750
H          2.70298       -3.37519       -1.73887
N          2.31561        1.24297        1.07246
C          2.58486        1.14166        2.51868
C          3.06160        2.30976        0.37384
H          2.50295        0.31159        0.63752
H          2.28978        2.07143        3.00781
H          2.00515        0.30989        2.91939
H          3.64806        0.95617        2.68079
H          2.80359        3.27355        0.81564
H          4.13339        2.12750        0.47076
H          2.76241        2.29993       -0.67430
H         -2.69792       -1.30317        2.14213
H         -2.00372        0.28089        1.68937
H         -4.51220        0.41451        1.86038
H         -3.92450        0.74285        0.22437
H         -5.26485       -1.70039        1.11002
H         -5.51056       -0.81539       -0.24448
H         -1.12825       -1.62154        0.38058
H         -2.70002       -1.78928       -0.25049
C         -2.64961       -0.53595        1.36405
C         -4.03850       -0.03942        0.98076
N         -2.02605       -1.13916        0.16296
N         -4.80171       -1.14597        0.39843
