35
1sa1msa1ma1eda_59.log	Energy: -1035898.4492663
S         -1.32418        1.45473       -0.64637
O         -0.97920        0.40890       -1.80332
O         -0.81288        0.84802        0.61836
O         -0.67122        2.73005       -0.95862
O         -2.80606        1.48291       -0.65094
H         -3.18878        0.20911        0.30811
S          2.16991       -1.02980       -0.29391
O          1.69794       -1.31943        1.07532
O          2.92596        0.25627       -0.38261
O          1.09857       -1.12475       -1.32374
H         -0.11128       -0.05563       -1.62782
C          3.34939       -2.29610       -0.72551
H          2.83759       -3.25817       -0.69495
H          3.72347       -2.08919       -1.72802
H          4.15781       -2.26672        0.00508
N          1.53050        2.22280        0.78361
H          0.71598        1.65559        1.09244
H          2.15985        1.52949        0.29503
C          2.21558        2.93066        1.87811
H          3.05331        3.49881        1.47390
H          1.51793        3.60507        2.37510
H          2.58800        2.19427        2.58995
H          1.11461        2.84258        0.07774
H         -3.82916       -2.65589        0.76102
H         -3.62796       -1.79716       -0.78887
H         -1.67756       -3.36804       -0.15117
H         -1.19811       -1.71307       -0.50259
H         -1.15548       -2.98536        2.07735
H         -0.23777       -1.75569        1.47524
H         -4.19511       -0.51768        1.45267
H         -2.51927       -0.65721        1.61501
C         -3.22672       -1.92304        0.21782
C         -1.74585       -2.33439        0.20673
N         -3.32073       -0.62746        0.94694
N         -1.18677       -2.12855        1.53815
