38
1sa1msa1dma1eda_150.log	Energy: -1060551.0582782
S         -2.75847       -0.92258       -0.31432
O         -2.71536        0.08383       -1.54348
O         -3.88240       -1.79476       -0.49507
O         -1.42742       -1.48016       -0.12318
O         -3.07475        0.03924        0.91442
H         -2.43019        0.79077        0.88435
S          0.08611        2.04118        0.11847
O          0.84894        1.42479       -0.98492
O          0.53831        1.61430        1.46604
O         -1.39445        1.86978       -0.05502
H         -2.10028        0.82341       -1.30966
C          0.35506        3.80048        0.03602
H          1.42222        3.98500        0.16072
H          0.01182        4.15142       -0.93723
H         -0.21338        4.26888        0.83942
N          1.43906       -1.00377        1.68133
C          2.81521       -1.16928        2.19037
C          0.41041       -1.70899        2.47227
H          1.18830        0.00463        1.64312
H          3.03193       -2.23590        2.28182
H          3.49729       -0.71701        1.46697
H          2.90545       -0.69483        3.16977
H          0.63254       -2.77797        2.47672
H          0.41226       -1.32736        3.49516
H         -0.55924       -1.54444        2.00462
H          1.39864       -1.31655        0.64763
H          2.80428       -0.07480       -2.74082
H          4.30321       -0.95081       -2.41323
H          2.38361       -2.45051       -2.64151
H          3.15774       -2.59077       -1.05267
H          0.86939       -0.77697       -1.34205
H          0.60474       -2.36640       -1.11742
H          4.37559        0.74410       -0.90564
H          2.77823        0.72005       -0.59626
C          3.34274       -0.65785       -1.97738
C          2.55531       -1.93118       -1.68881
N          3.58760        0.12202       -0.76136
N          1.29737       -1.63491       -0.99217
