40
1sa1msa2eda_288.log	Energy: -1095270.7594888
S         -0.20146        0.22158        1.32882
O         -1.50210       -0.06607        1.96415
O          0.97708       -0.12619        2.12356
O         -0.09390       -0.74629        0.04806
O         -0.12774        1.61453        0.80039
H         -0.93814       -0.69228       -0.46187
H          1.39139        2.08137        0.95137
S         -3.83563       -0.27441       -0.60507
O         -4.65390       -1.46924       -0.60890
O         -2.47760       -0.36459       -1.16358
O         -3.76175        0.35868        0.83516
H         -2.86415        0.19982        1.28629
C         -4.69248        1.02162       -1.46670
H         -4.83172        0.68444       -2.49425
H         -5.65532        1.17257       -0.97868
H         -4.08401        1.92438       -1.42758
H          4.22450        1.41918        0.26788
H          2.87117        0.28123        0.44163
H          3.28517        0.89009       -1.96356
H          1.67509        1.40264       -1.42449
H          3.95219        3.14478       -1.94038
H          2.37269        3.38049       -2.27348
H          2.72777        2.20203        1.96952
H          2.62324        3.19867        0.60514
C          3.14883        1.28641        0.12377
C          2.74788        1.58844       -1.31333
N          2.44098        2.26647        0.99542
N          3.01286        3.00923       -1.58199
H          2.03489       -1.17693       -1.24527
H          2.50309       -2.48474       -2.31803
H          1.57982       -3.36272       -0.20446
H          3.29421       -3.79765       -0.34053
H          2.16371       -1.72541        1.38979
H          3.19249       -2.93229        1.76861
H          4.47153       -1.32064       -0.54109
H          4.72406       -2.06890       -1.96572
C          2.76180       -1.98760       -1.37742
C          2.60180       -2.95757       -0.20464
N          4.10822       -1.41818       -1.48872
N          2.95107       -2.27028        1.04075
