41
1sa1msa1tma1eda_23.log	Energy: -1085218.0690843
S          2.40262       -1.24614       -0.40388
O          1.72007       -2.49429       -0.79416
O          1.76929       -0.06576       -1.05080
O          2.65393       -1.05611        1.02129
O          3.90015       -1.35330       -1.03900
H          3.81769       -1.67279       -1.94753
S         -2.35307        1.33354       -0.46669
O         -1.50680        2.41891       -0.99563
O         -2.03013        0.95784        0.93318
O         -2.41301        0.13339       -1.35856
C         -4.02583        1.96563       -0.45199
H         -4.04960        2.84818        0.18797
H         -4.29712        2.22567       -1.47541
H         -4.68830        1.19147       -0.06389
H         -0.31322       -2.77806        1.18292
H         -0.72151       -1.03924        1.16486
H         -2.45227       -2.33717        2.41797
H         -3.09831       -1.51518        0.99608
H         -2.56752       -4.39217        1.21583
H         -3.91871       -3.63561        0.68603
H         -0.06139       -2.15725       -0.98849
H         -1.59742       -2.85983       -0.93351
C         -1.03375       -2.03175        0.83890
C         -2.44654       -2.33049        1.32081
N         -1.03119       -2.05428       -0.64617
N         -2.90811       -3.58049        0.71162
H         -1.48601       -1.17470       -1.01584
N          1.79958        2.08508        0.58332
C          1.31590        3.33048       -0.06548
H          1.90806        3.50668       -0.96447
H          0.26539        3.19440       -0.33433
H          1.44194        4.15973        0.63496
C          0.99842        1.73924        1.78774
H         -0.05236        1.63990        1.50238
H          1.37427        0.79143        2.17578
H          1.12203        2.53291        2.52890
C          3.25043        2.13727        0.88921
H          3.54875        1.17491        1.30631
H          3.79661        2.31964       -0.03690
H          3.43486        2.94506        1.60110
H          1.67953        1.29348       -0.09859
