39
1sa1msa1dma1tma_63.log	Energy: -1050459.1949990
S          0.82955       -0.23052        0.73563
O          0.34090       -1.43099        0.06924
O         -0.01878        0.45074        1.68455
O          2.15772       -0.58793        1.48993
O          1.33321        0.76839       -0.36856
H          2.79976       -1.15289        0.93976
H          0.85454        1.66581       -0.33260
S         -3.06616       -0.99637       -0.34169
O         -4.38771       -1.38548       -0.77544
O         -2.31950        0.02461       -1.05831
O         -2.20723       -2.34720       -0.31803
H         -1.25696       -2.11375       -0.30043
C         -3.11547       -0.57716        1.38165
H         -3.97236        0.07679        1.55102
H         -3.22110       -1.49116        1.96571
H         -2.18541       -0.07092        1.64251
N          3.62209       -2.10724       -0.23504
C          3.35000       -1.55434       -1.56320
C          3.10128       -3.46558       -0.07604
H          4.62533       -2.12066       -0.08901
H          2.28429       -1.64780       -1.76402
H          3.59655       -0.49282       -1.58271
H          3.90906       -2.07720       -2.35073
H          2.01584       -3.42657       -0.16005
H          3.49475       -4.15675       -0.83360
H          3.35248       -3.84106        0.91784
N          0.53056        3.29912       -0.27960
C          1.12242        3.81070        0.95235
H          0.73919        3.23897        1.79823
H          2.20682        3.68395        0.91619
H          0.88648        4.87579        1.09691
C          1.07532        3.98333       -1.44633
H          2.15753        3.83935       -1.48394
H          0.63823        3.55833       -2.35212
H          0.85704        5.06151       -1.41800
C         -0.92517        3.41262       -0.24151
H         -1.35842        2.92501       -1.11475
H         -1.30268        2.89244        0.63764
H         -1.24295        4.46617       -0.21293
