36
1sa1msa2dma_181.log	Energy: -1025802.4777014
S          1.18010       -0.51991        0.56746
O          0.02644       -0.09198        1.38441
O          2.28806       -1.14714        1.28268
O          0.65797       -1.65303       -0.43012
O          1.65485        0.61263       -0.29599
H         -0.24518       -1.42127       -0.76872
H          3.12755        0.42062       -0.59150
S         -2.97395       -1.00282       -0.18919
O         -3.90524       -2.09808       -0.34150
O         -1.82334       -0.91650       -1.10674
O         -2.42284       -1.03857        1.29614
H         -1.49328       -0.67242        1.35571
C         -3.83749        0.54260       -0.26741
H         -4.26007        0.62084       -1.27023
H         -4.62914        0.51286        0.48161
H         -3.11095        1.34406       -0.07055
N          4.18175        0.20971       -0.74251
C          4.30545       -1.19567       -1.20601
C          4.89400        0.48394        0.53002
H          4.51201        0.84292       -1.46930
H          3.88708       -1.83681       -0.42970
H          3.72701       -1.31416       -2.12218
H          5.35589       -1.43258       -1.38374
H          4.44962       -0.15290        1.29530
H          5.95803        0.27242        0.41000
H          4.74241        1.53035        0.79509
N         -1.23186        2.44640        0.04841
C         -1.05364        3.72992        0.70363
C         -0.90436        2.48356       -1.36775
H         -0.65072        1.74895        0.50588
H         -1.77792        4.45175        0.30815
H         -1.23580        3.62355        1.77637
H         -0.04457        4.15727        0.56326
H         -1.60274        3.15111       -1.88725
H          0.12088        2.83841       -1.56706
H         -1.00874        1.48124       -1.79093
