32
1sa1msa1a1eda_97.log	Energy: -1011237.2763879
S         -2.61982       -0.28402        0.19848
O         -2.33921       -1.12920       -0.98376
O         -1.67466       -0.48404        1.29470
O         -2.86789        1.13199       -0.17151
O         -4.03314       -0.79735        0.81281
H         -4.73502       -0.56324        0.19082
S          1.78529        1.41822        0.16726
O          1.45332        2.84902       -0.03117
O          3.20777        1.06405        0.13899
O          0.97919        0.58369       -0.81959
C          1.16419        0.97098        1.77988
H          1.64862        1.62526        2.50553
H          0.08022        1.08990        1.79525
H          1.42763       -0.07117        1.96893
N         -0.87785        2.43008       -1.45922
H         -1.15897        2.93770       -2.29183
H         -0.26580        1.62020       -1.67154
H         -0.26316        2.99792       -0.84992
H         -1.70570        2.04259       -0.93863
H          1.09136       -3.84199       -0.41744
H          1.00653       -2.94783       -1.94802
H          3.35713       -3.03641       -1.05662
H          2.74355       -1.38980       -1.23839
H          3.34784       -2.71276        1.24322
H          3.35125       -1.11199        0.83483
H         -0.73066       -2.01713       -0.61841
H          0.23264       -1.98710        0.73406
C          1.22518       -2.86119       -0.88130
C          2.63505       -2.31154       -0.65953
N          0.24326       -1.92597       -0.28417
N          2.84241       -1.98820        0.74892
H          0.52056       -0.92770       -0.49052
