32
1sa1msa1a1eda_150.log	Energy: -1011228.9291314
S         -1.35968       -1.89812       -0.28772
O         -2.52542       -1.00222       -0.21891
O         -0.97322       -2.39714       -1.59671
O         -0.22296       -1.31877        0.49872
O         -1.83580       -3.19628        0.57635
H         -1.41714       -3.97193        0.18049
S          2.60637        0.38016       -0.22734
O          2.53288        0.97841        1.10665
O          1.87476        1.05023       -1.29443
O          2.22745       -1.14782       -0.15989
H          1.23343       -1.27509        0.03695
C          4.31332        0.21653       -0.68754
H          4.82845       -0.34815        0.08886
H          4.36200       -0.29461       -1.64848
H          4.71692        1.22646       -0.76492
N          0.09942        0.49401        2.84834
H          0.14489        0.61467        3.85428
H          1.00036        0.76402        2.44975
H         -0.00715       -0.49809        2.64409
H         -0.48171        2.83426        0.29038
H         -0.35119        1.28061       -0.53890
H         -1.52757        2.93945       -1.98731
H         -2.58923        1.59555       -1.55419
H         -2.70461        4.29821       -0.43919
H         -3.92006        3.37304       -1.02050
H         -1.13193        1.12551        1.80806
H         -2.54929        1.97559        1.27672
C         -1.05604        1.99839       -0.11892
C         -2.06604        2.46997       -1.15499
N         -1.78558        1.35347        0.99928
N         -3.04733        3.34574       -0.50734
H         -2.18782        0.45464        0.65741
