36
1sa1msa2dma_137.log	Energy: -1025811.0378844
S          1.71646       -1.65995        0.35608
O          2.41598       -2.31205        1.44753
O          0.50868       -2.43138       -0.09247
O          1.44029       -0.22690        0.47681
O          2.72212       -1.69287       -0.93715
H          3.10107       -2.58020       -0.99367
S         -2.33613       -0.53134       -0.20427
O         -2.83872        0.65746       -0.88378
O         -1.72827       -0.32758        1.11778
O         -1.35393       -1.27284       -1.14598
H         -0.52302       -1.76377       -0.65243
C         -3.66899       -1.69135       -0.00541
H         -4.41165       -1.23553        0.64993
H         -4.09257       -1.89370       -0.98898
H         -3.26261       -2.59883        0.44150
N         -0.06333        1.95043        1.17547
C         -1.25736        2.81285        1.26414
C          0.93871        2.17408        2.23613
H         -0.36410        0.96170        1.18385
H         -0.95351        3.85697        1.16262
H         -1.94428        2.53593        0.46287
H         -1.74719        2.66094        2.22726
H          1.32315        3.19315        2.15523
H          0.47341        2.03243        3.21328
H          1.73992        1.44941        2.09622
H          0.39779        2.11208        0.21912
N          1.05081        2.45624       -1.31208
C          0.42550        1.48768       -2.22272
C          2.50818        2.29900       -1.25158
H          0.83203        3.39491       -1.63422
H          0.62674        0.48184       -1.85071
H         -0.65745        1.63263       -2.23285
H          0.81558        1.57048       -3.24676
H          2.73122        1.31106       -0.84251
H          2.98056        2.38995       -2.24002
H          2.93176        3.05830       -0.58772
