33
1sa1msa1ma1dma_137.log	Energy: -1001153.2650029
S          0.48802       -1.01731        0.05747
O          0.92143       -0.38374        1.30737
O         -0.19603       -0.03633       -0.85045
O          1.56501       -1.74382       -0.64092
O         -0.59127       -2.14203        0.38372
H         -1.41126       -1.71038        0.72756
S         -3.38465        0.26602        0.11103
O         -4.58453        0.97167        0.49622
O         -2.84725       -0.76227        1.01038
O         -2.26008        1.34478       -0.16638
H         -1.39160        0.86713       -0.36423
C         -3.60702       -0.49258       -1.48519
H         -4.35456       -1.27813       -1.36907
H         -3.95246        0.27130       -2.18147
H         -2.64876       -0.91022       -1.79955
N          2.04432        2.03226       -0.72935
H          2.30429        2.68962       -1.45848
C          1.64567        2.75036        0.49367
H          0.85094        3.48433        0.32075
H          1.28740        2.01579        1.21786
H          2.51293        3.26751        0.91392
H          1.24224        1.50017       -1.07447
N          3.69985       -0.10708       -0.11429
C          4.09189       -0.08509        1.31000
C          4.81749       -0.24790       -1.06376
H          3.00371       -0.87105       -0.27456
H          4.72528        0.78450        1.49658
H          3.17833       -0.03268        1.90289
H          4.63742       -0.99899        1.55241
H          5.51046        0.58685       -0.94122
H          5.34031       -1.18822       -0.88083
H          4.41667       -0.24818       -2.07800
H          3.13916        0.78005       -0.34866
