32
1sa1msa1a1eda_73.log	Energy: -1011238.1304722
S          2.41846       -1.02330        0.04806
O          3.10007        0.08249        0.72633
O          2.10859       -2.16965        0.93807
O          1.26341       -0.63928       -0.77894
O          3.47042       -1.59639       -1.05921
H          4.29358       -1.81554       -0.60227
S         -2.91727       -0.20614       -0.14571
O         -3.00250       -1.51958       -0.80410
O         -2.77659        0.95607       -1.05709
O         -1.82869       -0.19773        0.90365
C         -4.44503        0.04725        0.73867
H         -5.25318        0.04979        0.00697
H         -4.57248       -0.76866        1.45018
H         -4.39057        1.00577        1.25462
N         -0.53317       -2.54851        0.37378
H         -0.57634       -2.46641       -0.64212
H          0.47251       -2.56564        0.67027
H         -1.00062       -1.68120        0.73553
H         -1.05119       -3.37069        0.66884
H         -0.14931        3.78732       -0.48594
H         -0.69196        3.06217        1.04776
H          1.67540        3.96900        1.19626
H          1.61440        2.22790        1.48049
H          2.89640        3.53308       -0.70303
H          2.98875        1.95249       -0.19805
H         -1.10455        1.64907       -0.97337
H          0.60298        1.50856       -1.08629
C          0.02926        2.98316        0.23168
C          1.48010        3.00277        0.71769
N         -0.19875        1.70123       -0.46995
N          2.36416        2.72660       -0.40704
H         -0.26217        0.91231        0.18704
