40
1sa1msa2eda_236.log	Energy: -1095275.8416064
S         -1.09965       -0.11071        0.12642
O          0.33348       -0.04235       -0.28803
O         -1.35230       -0.80141        1.38523
O         -1.65191        1.28319        0.09257
O         -1.80756       -0.91121       -1.03478
H         -0.54127        2.27707       -0.34868
H         -2.69864       -1.32725       -0.68970
S          3.44900       -1.22758       -0.02579
O          3.51845       -0.62794        1.30054
O          3.80666       -0.36778       -1.15627
O          2.04924       -1.89861       -0.27248
H          1.29836       -1.19742       -0.27181
C          4.46302       -2.68551       -0.07318
H          5.49129       -2.35938        0.08523
H          4.14133       -3.35360        0.72512
H          4.35047       -3.15402       -1.05033
H          1.28325        4.40910        0.61561
H          0.35744        3.20747        1.55231
H          2.89868        2.75166        1.45428
H          1.89121        1.41725        0.89397
H          3.51989        3.14595       -0.76819
H          3.18033        1.54384       -0.92303
H         -0.29335        3.84646       -0.92913
H          0.90143        2.70155       -1.22731
C          0.98239        3.35912        0.67088
C          2.20863        2.43589        0.66452
N          0.18885        3.03766       -0.54727
N          2.78753        2.45167       -0.67646
H         -5.48114       -1.44355        1.37837
H         -3.85001       -0.76804        1.60481
H         -5.41222        1.00135        0.91230
H         -4.18080        0.73400       -0.32275
H         -6.97376       -0.14124       -0.46946
H         -6.10573        0.70143       -1.56990
H         -3.84927       -2.82119        0.28363
H         -4.72708       -2.04080       -0.87944
C         -4.61955       -0.99425        0.86247
C         -5.05457        0.28513        0.15881
N         -4.04709       -1.91604       -0.13101
N         -6.04897       -0.02922       -0.87115
