40
1sa1msa2eda_257.log	Energy: -1095274.8531158
S          0.42877       -1.55402       -0.21197
O          0.20481       -0.25209       -0.84917
O         -0.58556       -2.56019       -0.60121
O          1.82689       -2.01487       -0.25523
O          0.22920       -1.30506        1.38676
H          2.56101       -0.53063        0.52630
H         -0.70996       -1.05067        1.52595
S         -3.17446       -0.29134        0.08603
O         -3.09137        1.02534       -0.52217
O         -2.39353       -0.52482        1.30915
O         -2.87819       -1.42480       -0.96084
H         -1.96370       -1.86786       -0.84459
C         -4.87876       -0.64131        0.44419
H         -5.21938        0.11578        1.15099
H         -5.43896       -0.57853       -0.48861
H         -4.94439       -1.63861        0.87754
H          5.21934       -1.12726        0.83886
H          6.08336        0.08777       -0.10719
H          4.69950        1.28617        1.45342
H          3.98866        1.48173       -0.16501
H          2.99019       -0.15681        2.05743
H          2.12300        1.02191        1.13131
H          5.25620       -1.38692       -1.68999
H          3.73104       -1.39216       -1.09271
C          5.09385       -0.34544        0.06879
C          4.21068        0.76375        0.62737
N          4.57035       -0.82605       -1.19994
N          2.91031        0.24281        1.12414
H          1.54366        3.62706       -0.23685
H          1.55304        2.08377       -1.11734
H         -0.26174        3.55731       -1.95535
H         -0.86180        2.04745       -1.26839
H         -1.33075        4.68980       -0.26316
H         -2.16566        3.29376       -0.02824
H          0.45010        2.60310        1.54259
H          0.19661        1.23087        0.71465
C          0.98312        2.70218       -0.41592
C         -0.39125        3.00210       -1.01639
N          0.87709        1.97793        0.86273
N         -1.23947        3.70428       -0.05165
