41
1sa1msa1tma1eda_117.log	Energy: -1085210.5273868
S         -0.27897       -1.61580        0.39934
O          0.65441       -2.58548        0.96978
O         -0.98806       -0.74715        1.34894
O          0.44693       -0.78513       -0.65156
O         -1.36689       -2.42475       -0.40730
H         -2.31109       -2.02754       -0.28918
S          0.73253        2.57166        0.00667
O          0.74708        3.92760       -0.50078
O          2.00909        1.90705        0.29161
O         -0.06708        1.68880       -1.04115
H          0.10054        0.70077       -0.88355
C         -0.27091        2.48517        1.46938
H          0.21116        3.10829        2.22376
H         -1.26726        2.85318        1.21973
H         -0.32602        1.44039        1.78307
H         -4.81553        0.65753        0.81443
H         -4.86936        1.49460       -0.72457
H         -5.55756       -0.77109       -1.06556
H         -3.99570       -0.54955       -1.87535
H         -4.09553       -1.63677        0.84533
H         -4.27867       -2.60190       -0.45497
H         -2.39936        0.53852        0.57191
H         -2.48378        1.41305       -0.81364
C         -4.31669        0.73394       -0.16206
C         -4.48532       -0.59990       -0.89645
N         -2.96585        1.20824        0.05563
N         -3.88101       -1.71869       -0.14648
N          3.10106       -1.07978       -0.32493
C          3.33428       -2.49875       -0.69114
H          2.69413       -3.11983       -0.06476
H          3.06556       -2.63883       -1.73867
H          4.38994       -2.73569       -0.53932
C          3.83842       -0.14517       -1.21059
H          3.55174       -0.34297       -2.24420
H          3.56463        0.87431       -0.93875
H          4.91112       -0.30910       -1.08387
C          3.39330       -0.83121        1.11177
H          3.14572        0.20710        1.33090
H          2.76606       -1.49990        1.70188
H          4.45275       -1.02610        1.29481
H          2.06788       -0.90283       -0.45688
