23
1sa1msa1ma_11.log	Energy: -916335.9891415
S          2.18997       -0.55183        0.09241
O          2.52680        0.58847       -0.79814
O          3.12849       -0.77918        1.17368
O          0.75537       -0.48489        0.48404
O          2.20652       -1.87744       -0.85049
H          3.11757       -2.19520       -0.91027
S         -2.45026       -0.27051       -0.09759
O         -3.73874       -0.58577       -0.66643
O         -1.95981        1.11455       -0.20683
O         -1.38566       -1.24281       -0.73932
H         -0.47269       -1.04184       -0.36213
C         -2.41028       -0.70666        1.62691
H         -3.09434       -0.03688        2.14893
H         -2.73776       -1.74219        1.71812
H         -1.38686       -0.58543        1.98621
N          0.46645        2.28453       -0.69993
H          0.40410        2.96358       -1.45511
H         -0.42196        1.74453       -0.65836
C          0.69549        2.93288        0.61372
H          0.72997        2.14480        1.36495
H          1.64786        3.46142        0.59369
H         -0.12266        3.61882        0.83106
H          1.26144        1.61345       -0.89050
