36
1sa1msa2dma_39.log	Energy: -1025817.3089254
S         -1.04066       -0.00682        0.38283
O         -1.25951        1.23872       -0.41387
O         -0.92644       -1.20552       -0.45446
O          0.11319        0.18133        1.31253
O         -2.28847       -0.16499        1.32938
H         -3.13300       -0.23024        0.72152
S          2.96334       -1.15988       -0.05623
O          4.33275       -1.58709        0.12677
O          2.73119        0.15311       -0.68712
O          2.25632       -1.18586        1.34795
H          1.35968       -0.69874        1.33494
C          2.06776       -2.36774       -1.00119
H          2.50152       -2.37818       -2.00176
H          2.20248       -3.33253       -0.51200
H          1.01385       -2.07598       -1.02083
N          1.18638        2.39077       -0.32467
C          1.38487        3.06007        0.97849
C          1.54639        3.20562       -1.50074
H          1.74627        1.51449       -0.34431
H          0.79060        3.97486        1.00550
H          1.05139        2.37245        1.75525
H          2.44263        3.29578        1.10590
H          0.93990        4.11270       -1.51245
H          2.60508        3.46447       -1.45086
H          1.35527        2.62183       -2.40100
H          0.18891        2.06108       -0.39668
N         -4.27491       -0.29140       -0.35324
C         -5.57076        0.16893        0.14230
C         -4.31245       -1.63740       -0.93087
H         -3.92344        0.36195       -1.04957
H         -5.89415       -0.48731        0.95516
H         -5.46938        1.18112        0.54010
H         -6.34616        0.16380       -0.63644
H         -4.59695       -2.34926       -0.15101
H         -5.03271       -1.71738       -1.75691
H         -3.31207       -1.89796       -1.28219
