23
1sa1msa1ma_16.log	Energy: -916335.4213710
S          2.22325       -0.49287       -0.14860
O          1.30126       -1.65684       -0.04384
O          3.60989       -0.86152       -0.31868
O          1.69510        0.57562       -1.02000
O          2.08928        0.25671        1.32426
H          2.38009       -0.36084        2.00831
S         -2.00100       -0.46766       -0.02245
O         -2.13279        0.46215       -1.13755
O         -1.50476        0.12926        1.23227
O         -1.15634       -1.71713       -0.39762
H         -0.12168       -1.61655       -0.26037
C         -3.56733       -1.23912        0.28841
H         -3.88367       -1.73841       -0.62720
H         -3.44680       -1.95209        1.10324
H         -4.26735       -0.44839        0.55890
N          0.15812        2.23471        0.40993
H          0.75615        1.65142       -0.23648
H         -0.45850        1.54891        0.88790
C         -0.62750        3.24797       -0.32992
H         -1.21833        3.83878        0.37013
H          0.05192        3.89286       -0.88639
H         -1.28565        2.71380       -1.01459
H          0.78685        2.63694        1.10233
