40
1sa1msa2eda_245.log	Energy: -1095276.7714123
S         -0.03808       -0.77648       -0.80700
O          1.16092       -0.76318       -1.64846
O         -1.27036       -1.20737       -1.49395
O          0.16404       -1.46719        0.49177
O         -0.23603        0.78817       -0.43814
H          1.54532       -0.84069        1.23134
H         -1.13880        0.91085       -0.05248
S         -3.93310        0.19451        0.17150
O         -4.75788        0.94160       -0.75519
O         -2.69634        0.82615        0.65856
O         -3.58970       -1.23893       -0.38822
H         -2.67207       -1.26001       -0.82318
C         -4.90458       -0.26287        1.58600
H         -5.22029        0.66337        2.06677
H         -5.76842       -0.82677        1.23433
H         -4.28557       -0.86183        2.25264
H          4.46467       -0.99644        1.79296
H          3.27264       -1.95931        2.70290
H          4.22983       -3.26200        0.88005
H          2.49501       -3.03306        0.63675
H          4.22715       -2.60128       -1.27209
H          2.91867       -1.63412       -1.13679
H          2.32366        0.14607        2.34032
H          2.77367        0.25245        0.69148
C          3.48559       -1.48038        1.74310
C          3.46684       -2.51973        0.62656
N          2.46846       -0.42150        1.50849
N          3.77898       -1.92226       -0.66874
H          1.46639        3.17970       -1.04779
H          2.40342        4.38997       -0.18478
H          3.89406        2.95796       -1.44493
H          4.18937        2.74587        0.28495
H          2.49898        0.88509       -1.26808
H          4.05977        0.60696       -0.89653
H          0.97484        2.07215        0.89399
H          2.06246        2.94597        1.81468
C          2.16612        3.32007       -0.21652
C          3.46151        2.56052       -0.51573
N          1.46026        2.95621        0.99976
N          3.23146        1.11480       -0.59380
