33
1sa1msa1ma1dma_89.log	Energy: -1001155.5537182
S         -0.92853        1.62932        0.24535
O         -0.53559        0.83670       -0.96275
O         -2.33290        2.03575        0.19975
O         -0.45855        0.99831        1.47869
O         -0.04198        2.99458        0.16836
H         -0.42716        3.56937       -0.50692
S          2.66138       -0.35752       -0.29592
O          3.94926       -0.80932       -0.77472
O          1.69847       -1.35359        0.18893
O          1.98735        0.47196       -1.46217
H          1.00613        0.62828       -1.28346
C          2.88994        0.84678        0.99274
H          3.41612        0.34501        1.80604
H          3.49066        1.66182        0.58985
H          1.90890        1.19324        1.32392
N         -3.47200       -0.68773       -0.14593
H         -4.32061       -1.08541        0.24414
C         -3.52156       -0.69805       -1.61576
H         -4.38375       -0.15829       -2.02350
H         -2.61050       -0.22690       -1.99218
H         -3.55816       -1.73039       -1.97666
H         -3.41269        0.28158        0.17184
N         -1.00625       -1.81465        0.51812
C         -0.84445       -2.95688       -0.40235
C         -0.91205       -2.16261        1.94975
H         -0.26287       -1.13382        0.31398
H         -1.64033       -3.68143       -0.21888
H         -0.90847       -2.58470       -1.42511
H          0.13356       -3.41138       -0.24401
H         -1.70733       -2.86661        2.20223
H          0.06433       -2.60925        2.14151
H         -1.01659       -1.24179        2.52317
H         -1.94881       -1.35219        0.32284
