26
1sa1msa1dma_39.log	Energy: -940995.3413953
S         -0.84553       -0.93053       -0.07407
O          0.24307       -1.67177       -0.72886
O         -0.94040        0.47391       -0.61295
O         -2.14932       -1.58392       -0.04375
O         -0.45404       -0.76038        1.47136
H          0.45720       -0.38177        1.52073
S          2.90291        0.37285        0.10142
O          4.31045        0.62687        0.30167
O          2.01836        0.33811        1.27371
O          2.77231       -0.99197       -0.68641
H          1.81838       -1.30174       -0.70363
C          2.23159        1.56516       -1.03659
H          2.33925        2.54433       -0.56794
H          2.80949        1.51370       -1.95922
H          1.17799        1.32734       -1.20173
N         -3.37986        1.25793       -0.12285
C         -3.63771        0.92029        1.30112
C         -4.26074        0.53585       -1.07458
H         -3.47060        2.26362       -0.25923
H         -3.47140       -0.15033        1.42176
H         -2.93036        1.46687        1.92446
H         -4.66388        1.18641        1.56038
H         -4.06412       -0.52959       -0.95374
H         -5.30522        0.76906       -0.86017
H         -4.00463        0.84000       -2.08955
H         -2.35351        0.99493       -0.34776
