38
1sa1msa1dma1eda_86.log	Energy: -1060561.4270188
S          1.69704       -1.90427       -0.31025
O          2.52414       -2.72366        0.55286
O          0.72257       -1.09187        0.73865
O          2.40818       -0.81476       -1.03248
O          0.77061       -2.64431       -1.19966
H         -0.88784       -2.34155       -1.18166
S         -1.22747        1.96268       -0.10114
O         -0.05537        2.64572        0.50441
O         -2.40813        1.86030        0.76259
O         -0.80193        0.63141       -0.66858
H          0.21657       -0.40418        0.24333
C         -1.69508        2.93576       -1.52222
H         -1.96174        3.93210       -1.16857
H         -0.84922        2.98026       -2.20830
H         -2.55201        2.45680       -1.99659
N          2.45053        1.49013        0.33864
C          2.91453        1.11844        1.69398
C          3.31050        2.47050       -0.35211
H          2.40762        0.60723       -0.24040
H          2.93497        2.00718        2.32679
H          2.22268        0.37740        2.09407
H          3.90998        0.67864        1.61846
H          3.35067        3.39432        0.22721
H          4.31159        2.05177       -0.46454
H          2.88711        2.67139       -1.33617
H          1.48223        1.87503        0.39994
H         -2.80913       -3.34010        0.28772
H         -1.29950       -2.71341        0.98935
H         -3.40178       -1.80556        2.11873
H         -2.28444       -0.58424        1.52095
H         -4.93500       -1.05459        0.57237
H         -3.94733        0.25841        0.42034
H         -2.53789       -2.05032       -1.56706
H         -1.62448       -0.89329       -0.83016
C         -2.21136       -2.44120        0.45519
C         -2.98637       -1.36143        1.20626
N         -1.79974       -1.91866       -0.88088
N         -3.99650       -0.75334        0.34331
