28
1sa1msa1eda_178.log	Energy: -975706.5595438
S         -2.95483       -0.56348       -0.10593
O         -4.23941       -1.17748       -0.20204
O         -2.80325        0.87084       -0.34136
O         -2.35564       -0.89607        1.33185
O         -1.96664       -1.33513       -1.08555
H         -1.43171       -0.57078        1.36547
H         -1.06401       -0.97203       -0.97267
S          0.51535        1.33360       -0.00348
O          0.94959        1.54597       -1.36756
O          0.09289       -0.04967        0.33497
O         -0.67818        2.29910        0.39175
H         -1.53999        1.89734        0.09451
C          1.75036        1.86477        1.13916
H          2.65240        1.30090        0.86367
H          1.89729        2.93486        0.98944
H          1.40776        1.64814        2.15051
H          4.49358       -2.31463        0.35923
H          3.01451       -3.07902       -0.19270
H          3.79425       -1.56252       -1.91047
H          2.27143       -0.95800       -1.24988
H          4.91464        0.09912       -0.55756
H          3.72482        0.85432       -1.38094
H          3.21208       -0.89888        1.75328
H          1.80398       -1.51889        1.21062
C          3.43522       -2.12358        0.13985
C          3.32826       -1.12351       -1.01453
N          2.78077       -1.73891        1.38288
N          3.90533        0.17485       -0.64794
