40
1sa1msa2eda_269.log	Energy: -1095273.0005510
S          0.07951       -1.70080       -0.06260
O          1.14787       -2.60676       -0.42960
O         -1.24085       -2.34647        0.17159
O          0.41873       -0.74980        1.02844
O         -0.13185       -0.76440       -1.37918
H          0.29888        0.81476        0.74493
H         -0.96237       -0.25875       -1.27034
S         -3.53932        0.11151       -0.05926
O         -4.33629       -0.35549       -1.17419
O         -2.29192        0.83646       -0.40753
O         -3.19479       -1.01731        0.95837
H         -2.36924       -1.59265        0.65501
C         -4.52342        1.16737        0.97523
H         -4.82115        2.02291        0.36814
H         -5.39929        0.60042        1.29066
H         -3.93087        1.47677        1.83558
H          1.51770        1.41439       -1.02209
H          0.03560        2.21201       -1.56360
H          2.13785        3.69741       -1.51999
H          0.77663        4.35886       -0.60208
H          2.95617        2.78369        0.60510
H          2.65394        4.40974        0.85368
H          0.65483        2.41000        1.22886
H         -0.84082        1.99487        0.50552
C          0.79997        2.19887       -0.78688
C          1.50941        3.54402       -0.63244
N          0.16903        1.84032        0.51600
N          2.23504        3.51540        0.63196
H          2.69309       -0.29698       -0.79716
H          4.16162        0.35777       -1.52351
H          4.31790       -2.07985       -1.20725
H          5.52226       -1.25417       -0.20059
H          2.97613       -2.34340        0.74801
H          4.48428       -2.77208        1.22314
H          3.57111        0.37677        1.33179
H          4.83274        1.10221        0.63280
C          3.75316       -0.09220       -0.61179
C          4.44571       -1.42743       -0.32954
N          3.85052        0.87711        0.48717
N          3.91882       -1.99277        0.90809
