33
1sa1msa1ma1dma_115.log	Energy: -1001153.3971815
S          1.38414       -1.60431        0.12765
O          1.89919       -1.64856       -1.24501
O          2.33671       -1.11915        1.12775
O          0.05978       -0.93188        0.24494
O          0.99169       -3.13497        0.52270
H          1.75111       -3.69872        0.32273
S         -2.90704        0.11375       -0.24534
O         -4.14433        0.44354       -0.91627
O         -2.11369        1.19601        0.34828
O         -2.00201       -0.67630       -1.27755
H         -1.11689       -0.87239       -0.84123
C         -3.20248       -1.09647        1.02604
H         -3.80768       -0.61809        1.79685
H         -3.73737       -1.93298        0.57680
H         -2.23653       -1.41258        1.42316
N          2.59823        1.26293       -1.37736
H          2.38880        0.30243       -1.66002
C          3.90031        1.28676       -0.69314
H          4.73311        0.99314       -1.34224
H          4.09734        2.29245       -0.30924
H          3.85695        0.59057        0.14751
H          2.62786        1.82478       -2.22271
N          0.61951        1.92965        0.45909
C          1.22579        1.86929        1.80702
C          0.06654        3.24966        0.10001
H          1.35685        1.65311       -0.27052
H          0.46300        2.09418        2.55432
H          1.62574        0.86510        1.95706
H          2.02998        2.60548        1.86512
H         -0.69923        3.53306        0.82221
H          0.87369        3.98489        0.09387
H         -0.38903        3.18123       -0.88739
H         -0.13514        1.23038        0.40648
