30
1sa1msa2ma_125.log	Energy: -976480.9503676
S          1.43436       -0.23628        0.29445
O          1.70486       -1.64568        0.01626
O          0.19299        0.05795        1.03831
O          2.60012        0.29741        1.25024
O          1.50013        0.62090       -0.94074
H          3.47037       -0.11894        0.93095
H          0.34204        1.62579       -0.86208
S         -3.04154       -0.48196       -0.19862
O         -2.87141        0.94059        0.08015
O         -2.56584       -1.01734       -1.46059
O         -4.64054       -0.76806       -0.12538
H         -4.90652       -1.17052       -0.96483
C         -2.46118       -1.42638        1.17795
H         -1.39268       -1.19754        1.26879
H         -3.00859       -1.09726        2.06138
H         -2.63944       -2.47961        0.96341
N         -0.45708        2.31918       -0.63734
H         -0.68119        2.86630       -1.46490
C         -0.05104        3.17030        0.50528
H         -0.85498        3.86065        0.76182
H          0.16130        2.50248        1.33979
H          0.85150        3.71917        0.23698
H         -1.28431        1.75670       -0.38418
N          4.65752       -1.00345        0.14471
H          5.52400       -1.22180        0.62435
C          4.90752       -0.41787       -1.17806
H          5.50387       -1.06228       -1.83569
H          3.94536       -0.21705       -1.65471
H          5.42713        0.53584       -1.05555
H          4.11956       -1.86272        0.05270
