30
1sa1msa2ma_68.log	Energy: -976491.8384914
S         -1.55759        0.52253        0.61207
O         -1.89559       -0.54504        1.54486
O         -0.55980        0.08544       -0.43700
O         -2.85904        0.90792       -0.20291
O         -1.09674        1.79748        1.20965
H         -3.42995        0.05858       -0.31642
H          0.24207        2.30202        0.47676
S          2.63081       -0.77064        0.12002
O          2.83671       -0.60823        1.54785
O          2.70701        0.46105       -0.69338
O          1.30362       -1.52576       -0.20339
H          0.47720       -0.87816       -0.23814
C          3.81111       -1.92757       -0.52737
H          3.68818       -2.86882        0.00808
H          3.62778       -2.05382       -1.59364
H          4.80067       -1.50734       -0.34626
N          1.03056        2.60876       -0.16571
H          1.52560        3.38686        0.26373
C          0.45838        2.96680       -1.48521
H          1.25470        3.27883       -2.16085
H         -0.03916        2.07733       -1.87020
H         -0.27033        3.76655       -1.35523
H          1.68957        1.81010       -0.27241
N         -4.09448       -1.41568       -0.29686
H         -3.90449       -1.64483        0.67654
C         -3.33618       -2.30924       -1.18205
H         -3.57296       -3.36927       -1.03534
H         -3.53836       -2.04250       -2.22193
H         -2.27046       -2.15904       -0.99654
H         -5.09347       -1.50106       -0.45127
