38
1sa1msa1dma1eda_275.log	Energy: -1060543.3575071
S         -1.32636        1.30661        0.12064
O         -0.12779        0.55368       -0.39291
O         -1.88359        0.73075        1.33997
O         -0.95671        2.74486        0.20077
O         -2.42292        1.23112       -1.00983
H          0.48288        2.97823       -0.33985
H         -3.04356        0.39993       -0.86006
S          1.77953       -2.15825        0.06284
O          2.17373       -1.65739        1.37273
O          2.57112       -1.70701       -1.08375
O          0.25213       -1.90623       -0.20178
H          0.04363       -0.88729       -0.26312
C          1.77444       -3.93522        0.08683
H          2.80389       -4.24935        0.26120
H          1.12742       -4.26592        0.89879
H          1.41764       -4.29626       -0.87725
N         -3.96095       -0.81824       -0.58193
C         -4.86770       -0.43989        0.50698
C         -3.10984       -1.96225       -0.23589
H         -4.50093       -1.03901       -1.41374
H         -4.26337       -0.09731        1.35023
H         -5.50221        0.38679        0.17930
H         -5.50280       -1.27675        0.82898
H         -2.48847       -1.68621        0.61928
H         -3.69754       -2.85419        0.02208
H         -2.44943       -2.19505       -1.07408
H          3.24139        3.72198        0.46651
H          1.83657        3.31636        1.48708
H          3.61166        1.45443        1.37660
H          2.00225        0.94544        0.86877
H          4.28692        1.37899       -0.86611
H          3.09429        0.25234       -0.95585
H          1.52608        4.13950       -0.99372
H          1.86426        2.51527       -1.28220
C          2.38975        3.04652        0.58610
C          2.84767        1.58294        0.60210
N          1.49825        3.20508       -0.59528
N          3.29200        1.22937       -0.74378
