41
1sa1msa1tma1eda_217.log	Energy: -1085197.2528695
S         -1.23796       -0.76424       -0.87344
O         -0.01445       -0.71862       -1.68887
O         -2.42588       -1.32325       -1.51052
O         -0.95937       -1.74700        0.36332
O         -1.53389        0.57477       -0.25357
H         -0.06456       -1.55602        0.74612
H         -2.98719        0.51324        0.26261
S          2.70955       -1.51753        0.42224
O          3.13163       -2.90232        0.48072
O          1.50768       -1.13076        1.18230
O          2.50637       -1.06869       -1.08576
H          1.53416       -0.96421       -1.31307
C          4.04399       -0.46071        0.90446
H          4.30967       -0.74803        1.92301
H          4.87563       -0.65675        0.22672
H          3.72138        0.58881        0.86508
H          2.83593        4.21387       -0.66001
H          3.78991        2.80093       -1.14229
H          1.52257        2.59457       -2.02670
H          1.81272        1.34625       -0.81894
H          0.16179        3.71338       -0.45969
H         -0.18133        2.13747       -0.14444
H          3.93798        3.38874        1.28559
H          2.37477        2.89442        1.40817
C          2.95721        3.12762       -0.50820
C          1.68046        2.42213       -0.95205
N          3.23912        2.77428        0.88271
N          0.55265        2.84097       -0.11997
N         -3.99768        0.41913        0.61953
C         -4.10002       -0.92227        1.25070
H         -3.88848       -1.67498        0.49135
H         -3.34999       -0.99524        2.03834
H         -5.10374       -1.05002        1.66337
C         -4.21431        1.50768        1.59750
H         -3.48087        1.41029        2.39857
H         -4.07604        2.46698        1.09794
H         -5.22579        1.44000        2.00504
C         -4.88036        0.53301       -0.56704
H         -4.74469        1.51944       -1.01185
H         -4.57577       -0.23049       -1.28343
H         -5.92063        0.39708       -0.26131
