20
1sa1msa1a_04.log	Energy: -891676.9710742
S         -2.03462       -0.34072        0.04323
O         -1.03801        0.04958        1.11193
O         -3.28567       -0.84953        0.54059
O         -2.11778        0.79743       -0.91867
O         -1.35539       -1.55713       -0.75069
H         -1.18200        1.93325       -0.47863
H         -0.50091       -1.26964       -1.13277
S          1.93568       -0.11876       -0.06172
O          1.99027        1.34909        0.03734
O          1.27229       -0.64520       -1.25600
O          1.30872       -0.72932        1.22894
H          0.28383       -0.49312        1.25170
C          3.58497       -0.75305        0.03840
H          4.12029       -0.37973       -0.83489
H          4.03678       -0.38814        0.96017
H          3.52834       -1.84110        0.02587
N         -0.50553        2.63999       -0.01675
H         -0.54820        3.55198       -0.46283
H          0.45655        2.24998       -0.05585
H         -0.77821        2.70733        0.96230
