36
1sa1msa2dma_19.log	Energy: -1025832.2812511
S         -2.16761        0.56230        0.60080
O         -1.59114       -0.59817        1.58173
O         -3.59786        0.51822        0.80362
O         -1.47710        1.81591        0.98581
O         -1.71430        0.15072       -0.77198
H         -0.24626        2.14695       -0.06963
H         -1.11942       -1.33645       -0.91368
S          2.09502       -0.42389        0.54505
O          2.26658        0.80102        1.33141
O          1.83211       -0.16491       -0.90398
O          1.05516       -1.35061        1.10649
H         -0.60922       -0.60506        1.58856
C          3.62561       -1.33668        0.62132
H          3.82916       -1.55884        1.66900
H          3.51679       -2.25604        0.04573
H          4.41253       -0.70981        0.20155
N         -0.65784       -2.28543       -0.83562
C          0.00197       -2.63362       -2.10814
C         -1.65777       -3.26088       -0.35516
H          0.06254       -2.11749       -0.10162
H         -0.74637       -2.67662       -2.90117
H          0.74322       -1.86275       -2.32193
H          0.49031       -3.60545       -2.01091
H         -2.44256       -3.36635       -1.10586
H         -1.17529       -4.22450       -0.18199
H         -2.08431       -2.87614        0.57160
N          0.47176        2.32472       -0.81983
C          1.42775        3.34879       -0.34906
C         -0.23909        2.67152       -2.06756
H          0.96751        1.41868       -0.94065
H          0.88377        4.26980       -0.13404
H          1.90890        2.96684        0.55069
H          2.17425        3.52911       -1.12494
H         -0.77015        3.61350       -1.92244
H          0.48372        2.77319       -2.87926
H         -0.95348        1.87571       -2.27775
