33
1sa1msa1ma1dma_191.log	Energy: -1001139.8048118
S          1.64048        0.48813        0.50439
O          0.39481        1.26724        0.63048
O          2.78910        0.99970        1.24657
O          1.36598       -0.95249        1.15143
O          1.98009        0.22753       -0.93449
H          0.50457       -1.30078        0.81343
H          3.45955       -0.02490       -1.04911
S         -2.23538       -0.87331        0.02815
O         -3.07082       -0.86172        1.21731
O         -1.00778       -1.68360        0.07294
O         -1.85906        0.59749       -0.41011
H         -0.96829        0.88271       -0.01698
C         -3.20180       -1.37022       -1.36985
H         -3.48010       -2.41077       -1.19714
H         -4.09188       -0.73018       -1.39055
H         -2.58878       -1.27246       -2.26497
N         -5.52431        0.59984       -0.17739
H         -6.52845        0.51316       -0.06638
C         -5.13762        2.00241       -0.33007
H         -5.43369        2.65078        0.50745
H         -4.05144        2.06149       -0.43541
H         -5.58272        2.40425       -1.24525
H         -5.09075        0.20364        0.65273
N          4.53805       -0.17640       -1.02611
C          4.83703       -1.14846        0.05591
C          5.18191        1.14613       -0.83286
H          4.80805       -0.56823       -1.92693
H          4.48146       -0.71688        0.99195
H          4.29346       -2.07207       -0.14267
H          5.91143       -1.33662        0.09650
H          4.78029        1.56988        0.08818
H          6.26481        1.02418       -0.76992
H          4.91904        1.78933       -1.67284
