23
1sa1msa1ma_74.log	Energy: -916310.3612093
S         -1.92351       -0.79607        0.09759
O         -1.02551       -0.56813        1.21514
O         -3.31073       -0.43467        0.17228
O         -1.33882       -0.14182       -1.20347
O         -1.79229       -2.37053       -0.18691
H         -0.33836       -0.20857       -1.21561
H         -2.50293       -2.64841       -0.78411
S          2.22328       -0.03425       -0.06924
O          2.65905        1.34188       -0.10273
O          1.24708       -0.48607       -1.07743
O          1.65826       -0.41657        1.36615
H          0.66894       -0.47130        1.35424
C          3.62766       -1.11292       -0.14519
H          4.11337       -0.93187       -1.10452
H          4.29349       -0.85269        0.67765
H          3.28125       -2.14256       -0.06670
N         -1.88780        3.02735       -0.12882
H         -2.38386        3.09434        0.75243
C         -0.46069        2.82057        0.08368
H         -0.20524        1.94878        0.70663
H          0.03898        2.70470       -0.88159
H         -0.02860        3.70292        0.56349
H         -2.29696        2.25971       -0.64902
