28
1sa1msa1eda_43.log	Energy: -975730.6617558
S          2.44286       -0.72304        0.04632
O          2.77609        0.22271        1.10793
O          2.70546       -2.13701        0.24174
O          1.03212       -0.45508       -0.44184
O          3.37425       -0.24294       -1.20226
H          3.50829       -1.00736       -1.77820
S         -2.17661       -0.90993        0.00480
O         -2.62539        0.05243       -0.99884
O         -1.72429       -0.35857        1.28136
O         -1.07689       -1.86639       -0.59098
H         -0.16137       -1.41995       -0.55372
C         -3.46221       -2.10046        0.28253
H         -4.32028       -1.55566        0.67703
H         -3.70565       -2.56725       -0.67152
H         -3.10166       -2.83482        1.00192
H          0.70594        3.69344        0.69591
H          1.60812        2.51860       -0.30178
H         -0.33296        3.55930       -1.57176
H         -0.47979        1.80978       -1.41073
H         -2.18436        3.78028       -0.20950
H         -2.43493        2.16329       -0.46197
H          1.01256        1.64148        1.91429
H         -0.62541        1.77236        1.45831
C          0.64469        2.74385        0.15870
C         -0.50176        2.75081       -0.85182
N          0.34797        1.67343        1.14220
N         -1.77106        2.86001       -0.13912
H          0.43785        0.75357        0.65883
