27
1sa1msa1a1ma_29.log	Energy: -951836.7354431
S          1.62557        0.19637        0.33447
O          1.17589       -1.10296       -0.25376
O          0.79849        0.62846        1.47127
O          3.06912       -0.07715        0.90539
O          1.73549        1.24988       -0.70889
H          3.57222       -0.67801        0.25138
H          0.38986        2.24688       -0.46168
S         -2.33564       -0.94940       -0.13019
O         -3.59062       -1.57897       -0.47327
O         -2.25234        0.51358       -0.28734
O         -1.20999       -1.63730       -0.98467
H         -0.26764       -1.35546       -0.71732
C         -1.88909       -1.32990        1.54943
H         -2.66993       -0.91220        2.18635
H         -1.85184       -2.41466        1.64883
H         -0.92113       -0.86951        1.76521
N          4.08683       -1.74717       -0.89376
H          4.73525       -2.47217       -0.60665
H          4.44590       -1.31083       -1.73651
H          3.19203       -2.17781       -1.11760
N         -0.49710        2.59238       -0.01563
H         -1.17833        1.81055       -0.11506
C         -1.00473        3.85841       -0.57753
H         -1.92277        4.14430       -0.06463
H         -0.25192        4.63757       -0.45913
H         -1.21295        3.70890       -1.63631
H         -0.27124        2.63902        0.97910
