27
1sa1msa1a1ma_163.log	Energy: -951821.5326018
S          1.64980       -1.18726       -0.03432
O          1.79672       -0.56588       -1.37577
O          2.87481       -1.11231        0.76897
O          0.42676       -0.74203        0.64814
O          1.36801       -2.77155       -0.29921
H          2.19049       -3.16955       -0.61381
S         -2.85749        0.24446       -0.02186
O         -2.07981        1.42523        0.33196
O         -2.81007       -0.26045       -1.38188
O         -4.40928        0.60802        0.29989
H         -4.92057        0.46214       -0.50914
C         -2.55785       -1.03671        1.16020
H         -1.49524       -1.28500        1.06931
H         -2.78231       -0.63676        2.14900
H         -3.20013       -1.88119        0.91216
N          0.56749        1.81352       -0.78355
H          0.87803        0.93976       -1.26229
H         -0.32249        1.62353       -0.30181
H          1.34663        2.01518       -0.07008
H          0.44802        2.57472       -1.44452
N          2.78208        1.95121        0.86542
H          2.90303        2.62696        1.61312
C          3.91481        1.99835       -0.07101
H          4.88289        1.82811        0.41283
H          3.76966        1.21986       -0.82410
H          3.94021        2.97216       -0.56936
H          2.75905        1.02361        1.29270
