40
1sa1msa2eda_28.log	Energy: -1095298.6036464
S          1.20433       -1.76816       -1.02438
O          0.06025       -1.39104       -2.10681
O          1.50398       -3.16216       -1.27352
O          2.31088       -0.80398       -1.22317
O          0.53927       -1.50147        0.29908
H          2.00633        0.63100       -0.35695
H         -1.04074       -1.68623        0.13961
S         -1.41003        1.79129       -0.74838
O         -0.70739        2.20975        0.49382
O         -2.57121        0.89983       -0.47555
O         -0.47442        1.23752       -1.75900
H         -0.11366       -0.41762       -2.06585
C         -2.10441        3.26888       -1.46160
H         -2.62833        2.98926       -2.37560
H         -2.79393        3.70279       -0.73733
H         -1.28810        3.95731       -1.68029
H          2.11172        1.45047        2.48238
H          1.74390       -0.16508        1.80964
H          4.14507       -0.02584        2.55960
H          3.98841       -0.30588        0.82001
H          4.77642        2.20643        2.09206
H          5.43039        1.45039        0.79660
H          0.96078        1.72274        0.42230
H          2.60541        2.10279        0.18361
C          2.33849        0.74060        1.68172
C          3.82922        0.43076        1.61316
N          1.93589        1.35764        0.39595
N          4.55887        1.65387        1.27014
H         -3.76387       -2.46861        1.10312
H         -2.19433       -3.22079        1.51148
H         -2.77674       -1.79517        3.33577
H         -1.46932       -0.98815        2.46491
H         -3.50227        0.38606        3.10340
H         -3.15289        0.47505        1.50639
H         -2.25018       -2.38373       -0.77697
H         -2.42053       -0.81197       -0.23455
C         -2.70181       -2.28259        1.27537
C         -2.53231       -1.27398        2.40508
N         -2.09334       -1.76845        0.01947
N         -3.45116       -0.15518        2.24869
