30
1sa1msa1a1dma_99.log	Energy: -976488.1665947
S         -2.19806       -0.14489        0.54364
O         -1.52678       -1.20128        1.26652
O         -3.04308        0.80942        1.23906
O         -1.13489        0.72244       -0.23940
O         -3.03392       -0.83149       -0.60439
H         -0.36258        0.15324       -0.59328
H         -3.76749       -0.19210       -0.91757
S          1.88615       -1.17771       -0.27182
O          3.18557       -1.35473       -0.92247
O          0.88324       -0.50553       -1.16363
O          1.97867       -0.43310        1.03567
H          2.20641        1.01691        0.84217
C          1.21077       -2.76552        0.14890
H          1.10188       -3.33000       -0.77746
H          1.90943       -3.25962        0.82410
H          0.24438       -2.59881        0.62759
N         -4.93593        0.93707       -1.14709
H         -4.86132        1.42599       -0.25726
H         -5.87946        0.57637       -1.23987
H         -4.77294        1.60357       -1.89414
N          2.48467        2.04336        0.58031
C          1.46934        2.59260       -0.35177
C          3.84866        1.96526        0.00330
H          2.49561        2.58886        1.44029
H          1.45080        1.95688       -1.23803
H          0.49015        2.54569        0.12514
H          1.72904        3.61955       -0.61586
H          3.83010        1.23637       -0.80908
H          4.15672        2.94635       -0.36271
H          4.53556        1.60957        0.77103
