23
1sa1msa1ma_54.log	Energy: -916325.1243485
S         -1.97138       -0.84939       -0.09406
O         -2.31813       -2.21705       -0.42013
O         -3.06376        0.11463        0.11282
O         -1.25751       -0.82671        1.38692
O         -0.90180       -0.26667       -0.97894
H         -0.37962       -1.24184        1.32431
H         -0.77208        1.30042       -0.34916
S          2.11809       -0.15530        0.07735
O          1.65001        1.21854        0.10591
O          1.59381       -1.12228        1.03586
O          3.72125       -0.10462        0.31622
H          3.94271       -0.73544        1.01702
C          2.02043       -0.79983       -1.56912
H          0.95094       -0.86689       -1.78956
H          2.53342       -0.10561       -2.23454
H          2.49423       -1.78114       -1.57438
N         -1.10058        2.06844        0.29663
H         -2.08209        1.78570        0.46018
C         -0.93247        3.41876       -0.27243
H         -1.31544        4.16535        0.42321
H          0.12794        3.58686       -0.45759
H         -1.48457        3.47082       -1.21013
H         -0.57753        1.93751        1.16159
