33
1sa1msa1ma1dma_121.log	Energy: -1001153.4934916
S         -0.34662       -0.56683       -0.87554
O          0.08348        0.86394       -0.81266
O         -0.21769       -1.21726        0.43991
O         -1.68566       -0.71975       -1.47620
O          0.62437       -1.29103       -1.90436
H          1.55619       -1.11244       -1.62831
S          3.32903        0.17650        0.31283
O          4.66512        0.68105        0.53249
O          3.05495       -0.59800       -0.90415
O          2.33295        1.40547        0.36951
H          1.47009        1.20052       -0.11406
C          2.82932       -0.81495        1.70262
H          3.48706       -1.68493        1.72427
H          2.95135       -0.21747        2.60599
H          1.78945       -1.11217        1.54723
N         -2.24888        1.98194        0.71151
H         -2.29716        2.63848        1.48418
C         -2.75968        2.59418       -0.52604
H         -2.23107        3.51233       -0.80256
H         -2.63567        1.87533       -1.34006
H         -3.82320        2.82366       -0.41052
H         -1.26433        1.75330        0.56258
N         -3.40484       -0.52451        0.61562
C         -4.82429       -0.38572        0.24379
C         -3.14670       -1.43451        1.74992
H         -2.84263       -0.81957       -0.21527
H         -5.38036        0.03535        1.08362
H         -4.89773        0.28016       -0.61666
H         -5.23641       -1.36229       -0.01578
H         -3.61166       -1.02859        2.65054
H         -3.56619       -2.41787        1.52989
H         -2.06651       -1.51763        1.87289
H         -2.99582        0.44788        0.81752
