30
1sa1msa1a1dma_06.log	Energy: -976508.2773382
S          2.60201       -0.41848       -0.11585
O          2.42412       -1.81000       -0.58688
O          2.80721        0.56778       -1.17214
O          1.56492       -0.04241        0.87778
O          3.95202       -0.42456        0.79479
H          4.70624       -0.56351        0.20605
S         -2.55174       -0.40889       -0.16910
O         -2.30290        0.81081       -0.98523
O         -1.87127       -0.33885        1.15068
O         -2.23619       -1.67388       -0.88784
C         -4.30807       -0.44206        0.13292
H         -4.58174        0.47251        0.65914
H         -4.81436       -0.49851       -0.83078
H         -4.53454       -1.31971        0.73847
N         -0.01610       -2.47499        0.46799
H         -0.09294       -1.67859        1.11311
H         -0.09203       -3.35122        0.97539
H         -0.81880       -2.35547       -0.19557
H          0.90928       -2.39257       -0.01277
N         -0.07345        2.01366        0.06055
C          0.63661        2.91748       -0.86863
C         -0.58633        2.66175        1.28584
H         -0.88359        1.56221       -0.42597
H          1.47108        3.38669       -0.34591
H          1.02841        2.32662       -1.69552
H         -0.05994        3.67626       -1.22893
H          0.25104        3.07180        1.85239
H         -1.27754        3.45867        1.00633
H         -1.10714        1.90109        1.86802
H          0.56248        1.23661        0.34598
