36
1sa1msa2dma_47.log	Energy: -1025821.0655735
S         -2.86994       -0.00770        0.01183
O         -2.90035        0.73755       -1.24445
O         -3.06292       -1.47109       -0.14511
O         -1.71761        0.30423        0.88367
O         -4.12920        0.50455        0.90343
H         -4.93210        0.39943        0.37510
S          2.85757       -0.21413       -0.00368
O          2.86511       -1.65711       -0.31004
O          2.31568        0.12733        1.33078
O          2.18365        0.59883       -1.07596
C          4.56713        0.30723       -0.02247
H          5.09783       -0.25513        0.74631
H          4.98014        0.09308       -1.00839
H          4.60814        1.37633        0.18785
N          0.18361        2.07923       -0.05065
C         -0.43287        2.89156       -1.11983
C          0.69595        2.85858        1.09582
H         -0.52271        1.39996        0.29961
H          0.32294        3.55420       -1.54460
H         -0.82842        2.22193       -1.88266
H         -1.25571        3.47382       -0.70255
H          1.41905        3.59135        0.73266
H         -0.13629        3.36621        1.58659
H          1.18757        2.16342        1.77653
H          0.97546        1.50629       -0.45471
N         -0.63871       -2.65813       -0.10006
C         -0.06310       -2.01750       -1.31533
C          0.11343       -2.37748        1.15629
H         -1.62521       -2.30521       -0.00893
H          0.96631       -2.34660       -1.45060
H         -0.69875       -2.26392       -2.16586
H         -0.05642       -0.93957       -1.15949
H          1.15746       -2.65734        1.01910
H          0.05212       -1.30840        1.35289
H         -0.35853       -2.93197        1.96790
H         -0.68744       -3.66494       -0.24777
