36
1sa1msa2dma_224.log	Energy: -1025796.9040242
S          0.99132       -0.19280       -0.17415
O         -0.09025        0.22385       -1.08509
O          2.09003        0.76656       -0.03913
O          0.37126       -0.28052        1.29503
O          1.50114       -1.56240       -0.50083
H         -0.53972       -0.66518        1.26061
H          2.99832       -1.62167       -0.22767
S         -3.11322       -0.82503        0.06069
O         -3.81774        0.39831        0.38374
O         -2.10600       -1.31344        1.01597
O         -2.45663       -0.75565       -1.37440
H         -1.51688       -0.38750       -1.31093
C         -4.28744       -2.12694       -0.21532
H         -4.81852       -2.27260        0.72574
H         -4.97387       -1.80392       -0.99772
H         -3.74943       -3.02859       -0.50495
N          0.32144        3.44439        0.38936
C          0.06511        3.74989       -1.00854
C         -0.88202        3.01546        1.08403
H          1.01693        2.70630        0.43770
H         -0.59677        4.62159       -1.07652
H          1.00498        4.00345       -1.50784
H         -0.40680        2.91705       -1.55763
H         -1.59045        3.85022        1.14046
H         -1.40037        2.17385        0.59323
H         -0.63290        2.71646        2.10582
N          4.05945       -1.57413       -0.01497
C          4.22492       -1.10144        1.38297
C          4.69320       -0.68888       -1.02391
H          4.42507       -2.52098       -0.10480
H          3.76418       -0.11581        1.45273
H          3.70500       -1.79072        2.04833
H          5.28638       -1.05515        1.63240
H          4.20428        0.28307       -0.95526
H          5.76271       -0.60597       -0.82257
H          4.52491       -1.11259       -2.01404
