27
1sa1msa1a1ma_06.log	Energy: -951845.0507593
S         -2.64192       -0.13827       -0.13119
O         -2.43330       -1.22157       -1.08526
O         -1.72521       -0.23284        1.04644
O         -2.66147        1.23590       -0.66967
O         -4.13797       -0.40454        0.43659
H         -4.44512        0.40057        0.87419
S          2.55775       -0.29899        0.04555
O          2.40475       -1.66831        0.61735
O          2.59193        0.78019        1.04671
O          1.51605       -0.05139       -1.00529
C          4.12954       -0.30618       -0.79436
H          4.90349       -0.50761       -0.05345
H          4.11022       -1.08649       -1.55484
H          4.27796        0.67326       -1.24934
N         -0.16991       -2.36618        0.28695
H         -0.71975       -1.64568        0.80549
H         -0.43416       -3.29911        0.58972
H         -0.44110       -2.23142       -0.69012
H          0.86423       -2.18581        0.41665
N         -0.05061        1.90519        0.06021
H         -0.99502        1.93882       -0.36429
H         -0.18915        1.48095        0.98030
C          0.63533        3.21051        0.14182
H          1.61077        3.04987        0.60030
H          0.75589        3.60833       -0.86556
H          0.03848        3.89950        0.73949
H          0.52605        1.20250       -0.46827
