41
1sa1msa1tma1eda_164.log	Energy: -1085205.3719761
S          2.71027       -0.36772       -0.48891
O          2.31523       -0.11371       -1.87657
O          3.17638        0.81179        0.24539
O          1.70558       -1.14473        0.29273
O          3.94873       -1.42213       -0.53927
H          4.64181       -1.03753       -1.09272
S         -1.65387       -1.92146        0.22607
O         -2.51056       -1.14104       -0.66755
O         -1.37729       -1.34397        1.54001
O         -0.33196       -2.29873       -0.51304
H          0.53125       -1.79794       -0.19210
C         -2.38978       -3.52468        0.43527
H         -2.50677       -3.97852       -0.54857
H         -1.73459       -4.12224        1.06846
H         -3.35993       -3.37350        0.90952
H         -2.70202        1.25301       -2.69322
H         -2.86151        3.00099       -2.48568
H         -0.55032        2.35931       -2.90142
H         -0.73946        3.14576       -1.33174
H         -0.89468        0.24235       -1.41138
H          0.57442        0.89321       -1.60031
H         -4.11154        2.11022       -0.78701
H         -3.01922        0.97145       -0.39981
C         -2.47682        2.09092       -2.01376
C         -0.96513        2.23070       -1.89298
N         -3.11505        1.93862       -0.70540
N         -0.35020        1.07944       -1.21009
N          0.07519        1.67293        1.53350
C          0.83213        2.92298        1.27719
H          1.77780        2.65504        0.80270
H          0.24196        3.56392        0.62208
H          1.01180        3.43031        2.22797
C         -1.30134        1.94323        2.01885
H         -1.85961        2.46258        1.23605
H         -1.77949        0.98334        2.21681
H         -1.24326        2.53797        2.93398
C          0.81536        0.79082        2.47537
H          0.31743       -0.17614        2.50316
H          1.83544        0.67217        2.11525
H          0.80227        1.26703        3.45953
H         -0.03914        1.22338        0.57464
