35
1sa1msa1ma1eda_63.log	Energy: -1035899.1979604
S         -2.03737        1.41399        0.45677
O         -2.30785        0.08192        1.34784
O         -3.24742        2.19175        0.58319
O         -0.78727        2.00949        0.97377
O         -1.79323        0.87300       -0.93336
H          0.52167        1.53933       -0.07553
H         -2.08588       -0.70093       -1.05900
S          1.03229       -1.65625        0.55109
O          1.74655       -0.58605        1.26428
O          1.00471       -1.45648       -0.92490
O         -0.35424       -1.88916        1.07877
H         -1.47045       -0.40993        1.49102
C          1.91426       -3.17559        0.85504
H          1.94178       -3.33883        1.93249
H          1.39277       -3.99113        0.35366
H          2.92225       -3.06187        0.45520
N         -2.18126       -1.75557       -0.97381
H         -1.52935       -1.99775       -0.19453
C         -1.81673       -2.45313       -2.22469
H         -1.95829       -3.52730       -2.10170
H         -2.44024       -2.08727       -3.04045
H         -0.76573       -2.24101       -2.42051
H         -3.13287       -1.95077       -0.66954
H          2.41173        2.31141       -2.24705
H          1.46844        3.43223       -1.22100
H          3.79321        3.19406       -0.41003
H          2.63239        2.61576        0.78939
H          4.71477        1.18029        0.04716
H          3.28817        0.43180        0.36317
H          0.17207        1.44770       -1.64655
H          1.35407        0.45586       -1.06386
C          1.98593        2.47055       -1.25420
C          3.07700        2.39617       -0.19267
N          0.97425        1.41527       -1.01126
N          3.74959        1.10466       -0.24718
