28
1sa1msa1eda_12.log	Energy: -975733.9300447
S          0.36890        2.03826        0.07188
O          1.63640        1.68901        0.75829
O          0.13819        1.08891       -1.05909
O         -0.79139        2.24526        0.91830
O          0.62723        3.48316       -0.60959
H          1.46152        3.45151       -1.09641
S         -2.34383       -1.18005       -0.03285
O         -1.14570       -1.51780        0.75450
O         -3.23521       -2.25487       -0.40534
O         -1.89868       -0.45359       -1.36061
H         -1.13575        0.19540       -1.21596
C         -3.22833        0.07476        0.85915
H         -3.56275       -0.37498        1.79473
H         -2.54770        0.91030        1.04076
H         -4.07975        0.37651        0.24908
H          1.71532       -2.42105       -0.86697
H          1.67190       -0.70678       -1.34578
H          4.00265       -1.66524       -1.55733
H          3.92453       -0.35385       -0.37639
H          4.10015       -3.20642        0.25618
H          4.98473       -1.96481        0.84931
H          0.54353       -1.25943        0.78589
H          2.09692       -1.57821        1.41099
C          2.08163       -1.41905       -0.62820
C          3.60405       -1.38147       -0.57520
N          1.55944       -1.05532        0.71221
N          4.06218       -2.22931        0.52628
H          1.68144       -0.02789        0.87178
