26
1sa1msa1dma_61.log	Energy: -940986.0663661
S         -1.37474       -1.36491       -0.05552
O         -1.24064       -2.74424       -0.48027
O         -0.62854       -0.37065       -0.86579
O         -2.77890       -0.90624        0.17316
O         -0.75753       -1.21835        1.44416
H         -2.74705        0.60217        0.23775
H          0.21565       -1.17721        1.37529
S          2.38534        0.30382        0.02640
O          1.78490        1.61908       -0.00825
O          1.99113       -0.65769        1.05624
O          3.98665        0.50573        0.21721
H          4.26563       -0.02635        0.97646
C          2.32237       -0.44720       -1.57639
H          1.26045       -0.62297       -1.77008
H          2.76016        0.25061       -2.29016
H          2.88007       -1.38237       -1.53486
N         -2.65792        1.68754        0.22876
C         -2.55877        2.12170       -1.18498
C         -1.48567        2.07950        1.05322
H         -3.51102        2.05436        0.64776
H         -1.69713        1.61184       -1.61662
H         -3.46392        1.81611       -1.71025
H         -2.43709        3.20557       -1.23322
H         -0.58625        1.69983        0.56747
H         -1.44285        3.16733        1.13557
H         -1.58484        1.62065        2.03672
