29
1sa1msa1tma_24.log	Energy: -965657.8239550
S         -0.60210        1.62511        0.13655
O          0.73178        2.22445        0.33008
O         -1.73085        2.53031        0.09662
O         -0.58700        0.93680       -1.33863
O         -0.79296        0.45502        1.06289
H          0.18535        0.32471       -1.36993
H         -1.83845       -0.48800        0.44556
S          2.59048       -0.65482       -0.12279
O          3.80498       -1.35478       -0.47077
O          1.39560       -0.87156       -0.95767
O          2.91769        0.88633       -0.07759
H          2.08468        1.43979        0.06874
C          2.13463       -1.02701        1.55645
H          1.96283       -2.10301        1.61100
H          2.96459       -0.73962        2.20182
H          1.22312       -0.47193        1.79155
N         -2.59607       -1.13122        0.03433
C         -3.57556       -0.24859       -0.65071
H         -3.94911        0.48169        0.06729
H         -3.06025        0.28114       -1.45161
H         -4.39279       -0.85645       -1.04633
C         -1.92927       -2.05953       -0.90997
H         -1.49723       -1.47646       -1.72173
H         -1.12864       -2.58305       -0.38703
H         -2.66215       -2.77123       -1.29781
C         -3.20016       -1.84206        1.18337
H         -2.42685       -2.42680        1.68265
H         -3.60129       -1.10540        1.87992
H         -3.99711       -2.50116        0.83113
