36
1sa1msa1ma1tma_55.log	Energy: -1025812.9840109
S          0.73385        2.10743        0.03661
O         -0.09438        1.92624       -1.18806
O         -0.04391        1.86315        1.26357
O          2.02960        1.43466       -0.02124
O          1.13362        3.68121        0.03799
H          0.31857        4.20013        0.01272
S         -2.42782       -0.61309       -0.24333
O         -1.14271       -1.25351        0.05465
O         -3.53671       -1.44534       -0.66197
O         -2.21481        0.47741       -1.36541
H         -1.36939        1.02397       -1.23893
C         -2.89861        0.34421        1.17911
H         -3.06315       -0.35881        1.99701
H         -2.08322        1.03478        1.40787
H         -3.82103        0.87205        0.93685
N          1.20848       -0.81499        1.84922
H          2.02746       -0.38171        2.26638
C          0.66811       -1.86844        2.71122
H          0.37221       -1.51001        3.70520
H         -0.20838       -2.30072        2.22293
H          1.41309       -2.65931        2.84493
H          0.53464       -0.05509        1.74767
N          1.83597       -1.62664       -0.70183
C          1.26932       -0.99953       -1.92210
H          0.18911       -1.12663       -1.90360
H          1.51293        0.06108       -1.91576
H          1.70014       -1.49310       -2.79761
C          3.30287       -1.43705       -0.63507
H          3.50446       -0.36577       -0.64552
H          3.67198       -1.87122        0.29563
H          3.77470       -1.92998       -1.48854
C          1.44928       -3.05259       -0.60231
H          1.85705       -3.46483        0.32204
H          0.36055       -3.10886       -0.57978
H          1.84666       -3.59976       -1.46063
H          1.46270       -1.17421        0.20563
