27
1sa1msa1a1ma_10.log	Energy: -951844.5590241
S         -2.56711       -0.16664       -0.09194
O         -2.26941        0.99407       -0.95645
O         -2.44624       -1.46405       -0.78989
O         -1.85825       -0.12273        1.19549
O         -4.12931       -0.03102        0.32740
H         -4.66484       -0.08817       -0.47573
S          2.48856       -0.29566       -0.17020
O          1.56261       -0.04129        0.99004
O          2.50974        0.82745       -1.11437
O          2.19623       -1.62722       -0.77265
C          4.12203       -0.43591        0.53308
H          4.37387        0.51469        1.00349
H          4.11669       -1.24101        1.26764
H          4.81656       -0.65861       -0.27729
N         -0.12745       -2.37333        0.37387
H         -0.13719       -3.28632        0.81826
H          0.75736       -2.22223       -0.17922
H         -0.98113       -2.23450       -0.20918
H         -0.14939       -1.62900        1.08135
N         -0.11042        2.04000        0.44992
H         -0.64632        2.22271        1.29719
H          0.52693        1.22989        0.66511
C          0.65490        3.21376       -0.02360
H          1.26331        2.89286       -0.86853
H         -0.03543        4.00435       -0.31756
H          1.30853        3.56266        0.77585
H         -0.81150        1.71387       -0.24709
