39
1sa1msa1dma1tma_60.log	Energy: -1050474.0434104
S         -0.27475       -2.34153        0.03201
O          0.69011       -1.23521        0.03383
O         -1.20656       -2.17223       -1.22175
O          0.22294       -3.68931        0.04754
O         -1.23526       -2.15403        1.26090
H         -1.61185       -1.21029        1.27932
S         -2.54760        0.98147       -0.01158
O         -2.09223        2.37711       -0.02029
O         -2.15589        0.24490        1.23105
O         -2.14063        0.22385       -1.23616
H         -1.58765       -1.23140       -1.25816
C         -4.33039        1.00390       -0.02252
H         -4.66591        1.53473        0.86853
H         -4.65528        1.52002       -0.92604
H         -4.68758       -0.02621       -0.01607
N          3.36168       -0.21721        0.03199
C          4.35450       -0.29209        1.10074
C          3.93099       -0.44848       -1.29496
H          2.62553       -0.90714        0.19118
H          5.09163        0.50841        0.97721
H          3.86156       -0.16243        2.06755
H          4.89083       -1.25123        1.11077
H          4.62844        0.35826       -1.54497
H          4.47248       -1.40229       -1.35946
H          3.12720       -0.46026       -2.03498
N          1.64977        1.92184        0.02240
C          2.38345        3.20388        0.01847
H          2.99755        3.26892        0.91820
H          3.02294        3.24903       -0.86472
H          1.66873        4.02954       -0.00066
C          0.84516        1.74559       -1.21640
H          1.50801        1.86152       -2.07615
H          0.41202        0.74606       -1.20463
H          0.04014        2.48172       -1.23639
C          0.82142        1.76638        1.24797
H          0.37776        0.77164        1.23889
H          1.46962        1.88343        2.11866
H          0.02430        2.51119        1.24650
H          2.37638        1.11963        0.03689
