30
1sa1msa1a1dma_22.log	Energy: -976499.9228026
S          1.65426        0.06563        0.33639
O          1.26537       -1.18981       -0.37827
O          0.76346        0.38894        1.45723
O          3.07680       -0.22479        0.95520
O          1.79757        1.20077       -0.61450
H          3.62258       -0.76152        0.28268
H          0.40163        2.09997       -0.45021
S         -2.26627       -1.20947       -0.09948
O         -3.50992       -1.85758       -0.45146
O         -2.19308        0.25159       -0.27119
O         -1.12465       -1.89508       -0.93540
H         -0.19149       -1.54767       -0.71812
C         -1.83650       -1.57169        1.58743
H         -2.62628       -1.15306        2.21264
H         -1.79378       -2.65534        1.69643
H         -0.87434       -1.10021        1.80517
N          4.20742       -1.72872       -0.92941
H          4.65221       -1.23193       -1.69392
H          3.31853       -2.09666       -1.26275
H          4.80146       -2.50626       -0.66301
N         -0.57002        2.45300       -0.25604
C         -1.11592        3.13195       -1.44758
C         -0.55788        3.26695        0.97724
H         -1.12009        1.58691       -0.09514
H         -0.51505        4.01523       -1.66936
H         -1.08138        2.43703       -2.28622
H         -2.15083        3.41951       -1.25715
H          0.03940        4.16426        0.80833
H         -1.58156        3.54357        1.23538
H         -0.11310        2.66222        1.76741
