33
1sa1msa1ma1dma_109.log	Energy: -1001151.1180420
S          0.50204        1.23789       -0.59942
O          0.39914        0.15769       -1.58273
O          0.15236        0.74196        0.78026
O          1.79388        1.94540       -0.57329
O         -0.56662        2.36140       -0.95846
H         -1.45462        1.93805       -0.91913
S         -3.06417       -0.42671        0.13859
O         -3.45451       -1.53626       -0.70551
O         -2.83999        0.88851       -0.47190
O         -1.79801       -0.82969        0.98659
H         -1.02155       -0.15432        0.89044
C         -4.29448       -0.22021        1.40773
H         -5.22654        0.04916        0.90990
H         -4.40189       -1.16830        1.93445
H         -3.97040        0.57201        2.08199
N          1.71853       -2.10689       -0.20657
H          1.45647       -2.88428        0.39152
C          2.31248       -2.59012       -1.46073
H          1.67132       -3.29797       -1.99708
H          2.47992       -1.73120       -2.11484
H          3.27277       -3.07314       -1.25703
H          0.86282       -1.59919       -0.43496
N          3.22561        0.00219        0.75833
C          4.63157       -0.19825        0.36581
C          3.01179        0.21606        2.20428
H          2.81972        0.81472        0.24036
H          5.02511       -1.08722        0.86271
H          4.67945       -0.33257       -0.71534
H          5.22357        0.67360        0.65022
H          3.33294       -0.67252        2.75164
H          3.58641        1.08332        2.53461
H          1.94744        0.39739        2.35678
H          2.64407       -0.85056        0.44253
