23
1sa1msa1ma_46.log	Energy: -916325.2336920
S         -2.74889       -0.26366        0.01086
O         -4.11541       -0.54644       -0.35462
O         -2.34759        1.00982        0.55859
O         -2.30961       -1.35011        1.12623
O         -1.85169       -0.63993       -1.21643
H         -2.79105       -2.17032        0.94956
H         -0.93431       -0.20580       -1.17234
S          1.31289        0.86617       -0.11691
O          0.46538        0.45380       -1.26336
O          2.71545        1.15739       -0.53768
O          1.28971       -0.12971        0.99899
H          2.79426       -0.90656        1.05144
C          0.62993        2.37663        0.51892
H          0.67750        3.12039       -0.27674
H         -0.40489        2.17477        0.79961
H          1.22491        2.68624        1.37799
N          3.73758       -1.01306        0.59076
H          3.76390       -0.09116        0.09130
C          3.72079       -2.13073       -0.38126
H          4.66713       -2.16233       -0.92025
H          3.55299       -3.07019        0.14413
H          2.90476       -1.94837       -1.08061
H          4.48346       -1.08922        1.27759
