36
1sa1msa2dma_219.log	Energy: -1025799.1909637
S          1.35896       -1.26689        0.83431
O          2.61353       -1.89453        1.19729
O          0.13289       -1.85686        1.40479
O          1.36063        0.22638        1.00401
O          1.26421       -1.46854       -0.77508
H          2.31818        0.85964        0.04433
H          0.36337       -1.18117       -1.06337
S         -2.43517       -0.78339       -0.68097
O         -3.12308       -1.91035       -1.27770
O         -1.14505       -0.38554       -1.28251
O         -2.22425       -0.99242        0.86774
H         -1.29777       -1.34917        1.08634
C         -3.49424        0.63548       -0.65977
H         -3.71621        0.87090       -1.70161
H         -4.40656        0.35634       -0.13174
H         -2.97298        1.46060       -0.15816
N          3.03672        1.23623       -0.68597
C          2.34664        1.44895       -1.98000
C          4.15478        0.26041       -0.76441
H          3.38126        2.12510       -0.32608
H          1.89372        0.50248       -2.27407
H          1.56667        2.19848       -1.84868
H          3.06591        1.77809       -2.73224
H          3.75002       -0.68585       -1.12301
H          4.92086        0.63580       -1.44537
H          4.56045        0.10867        0.23514
N         -1.54427        2.87332        0.84465
C         -0.45449        2.81061       -0.11421
C         -1.21385        2.22726        2.11065
H         -1.80692        3.83895        1.00894
H         -0.26469        1.76058       -0.35648
H         -0.73865        3.33473       -1.03265
H          0.48809        3.25000        0.26760
H         -1.01425        1.16810        1.93365
H         -0.32083        2.65510        2.59550
H         -2.06152        2.30890        2.79583
