33
1sa1msa1ma1dma_198.log	Energy: -1001136.6288986
S         -2.37880       -0.24799       -0.50130
O         -1.24004        0.46121       -1.11449
O         -3.62710       -0.16983       -1.28586
O         -2.02225       -1.79951       -0.49852
O         -2.60014        0.15641        0.91709
H         -1.09704       -1.91357       -0.16875
H         -4.23612        0.42473        1.15830
S          1.65507       -0.94640        0.21780
O          2.63026       -1.35403       -0.77836
O          0.50494       -1.83243        0.44988
O          1.12497        0.50975       -0.09437
H          0.19466        0.49746       -0.49456
C          2.47643       -0.66198        1.76087
H          2.87489       -1.62468        2.08417
H          3.28850        0.04797        1.56427
H          1.74487       -0.28197        2.47316
N         -5.18447        0.59378        0.72281
H         -4.98273        0.19969       -0.22510
C         -5.48187        2.04134        0.64198
H         -6.40754        2.19721        0.08884
H         -5.56966        2.45368        1.64668
H         -4.65388        2.51966        0.11968
H         -5.90901        0.05958        1.19564
N          4.75717        0.88287       -0.01703
C          6.20567        0.87262        0.09455
C          4.23922        2.13077       -0.55808
H          4.44776        0.11070       -0.60097
H          6.52170        1.62743        0.82333
H          6.54326       -0.10311        0.45529
H          6.72212        1.08936       -0.85714
H          4.43278        2.94321        0.15167
H          4.69581        2.41040       -1.52344
H          3.15854        2.04662       -0.69432
