33
1sa1msa1ma1dma_145.log	Energy: -1001151.4362081
S         -0.54690       -1.20246       -0.35709
O          0.09143       -0.08451       -1.12660
O         -1.72251       -1.73975       -1.03347
O          0.51606       -2.38178       -0.31400
O         -0.81241       -0.78245        1.04438
H          1.39351       -2.01259       -0.05248
H         -2.43505       -0.24628        1.03059
S          3.28337        0.26209        0.13930
O          4.31757        0.46181       -0.85544
O          2.81195       -1.10727        0.38592
O          2.04230        1.19195       -0.14286
H          1.25348        0.66673       -0.54025
C          3.83658        0.93387        1.68889
H          4.73354        0.38217        1.97192
H          4.06624        1.98875        1.53944
H          3.04610        0.80007        2.42658
N         -2.44108        1.53600       -1.48653
H         -1.78492        0.84281       -1.84855
C         -1.67710        2.69331       -0.99999
H         -1.06830        3.16906       -1.77652
H         -2.36210        3.43952       -0.58666
H         -1.00256        2.35780       -0.20841
H         -3.04867        1.80393       -2.25434
N         -3.34959        0.19085        0.76424
C         -3.74416        1.18554        1.77681
C         -4.35007       -0.86700        0.51562
H         -3.11715        0.69653       -0.15340
H         -3.91748        0.69064        2.73399
H         -2.94060        1.91494        1.88552
H         -4.65690        1.69107        1.45516
H         -4.56149       -1.39255        1.44866
H         -5.26601       -0.41389        0.13083
H         -3.92722       -1.55913       -0.21291
