38
1sa1msa1dma1eda_228.log	Energy: -1060548.4228012
S         -0.32167        1.38375       -0.76312
O         -0.19108        0.63878        0.55619
O         -1.53975        2.17954       -0.79671
O          0.93993        2.05013       -1.09223
O         -0.43935        0.22236       -1.86545
H         -1.21349       -0.34269       -1.62999
S         -3.30775       -0.93298        0.34611
O         -4.16958       -1.96373        0.87914
O         -2.50370       -1.23614       -0.84602
O         -2.33686       -0.47317        1.50983
H         -1.51114       -0.02224        1.14420
C         -4.25861        0.52900        0.00249
H         -4.95953        0.27137       -0.79243
H         -4.79111        0.80368        0.91294
H         -3.56978        1.31452       -0.31620
N          2.40127        0.73806        1.38892
C          2.66846        2.17530        1.61270
C          2.70553       -0.13108        2.54303
H          1.39072        0.63774        1.12776
H          3.73276        2.31968        1.80759
H          2.36253        2.71721        0.71728
H          2.08473        2.51926        2.46811
H          3.74333        0.02268        2.84545
H          2.03946        0.12456        3.36889
H          2.57327       -1.16865        2.23703
H          2.91781        0.42683        0.52067
H          4.23386       -2.44479       -1.78411
H          2.86797       -3.31193       -1.08055
H          2.11670       -1.38327       -2.41333
H          1.62420       -1.25140       -0.72955
H          3.97981        0.12610       -1.82420
H          2.51879        0.80945       -1.52496
H          4.39748       -3.07839        0.64121
H          4.65498       -1.49482        0.35714
C          3.43202       -2.37614       -1.02951
C          2.49419       -1.23538       -1.39405
N          3.94806       -2.22304        0.33302
N          3.15798        0.06789       -1.22864
