32
1sa1msa1a1eda_284.log	Energy: -1011224.9765183
S         -2.33411        0.14589       -0.12317
O         -1.44562       -0.71874       -0.98952
O         -3.16613        1.05644       -0.88714
O         -3.02867       -0.72564        0.85583
O         -1.33044        1.00830        0.76587
H         -2.14820       -2.02877        1.02772
H         -0.89891        1.72792        0.16959
S          1.71711       -1.50107       -0.28524
O          1.85496       -2.73573       -1.04302
O          1.04503       -1.62796        1.02505
O          1.00249       -0.39241       -1.13182
H         -0.04217       -0.49818       -1.09619
C          3.28914       -0.73330       -0.02715
H          3.88342       -1.42205        0.57434
H          3.75045       -0.57770       -1.00265
H          3.09530        0.20781        0.50031
N         -1.43920       -2.82907        0.96015
H         -0.48222       -2.42353        1.07239
H         -1.50115       -3.20762        0.01622
H         -1.61126       -3.55640        1.64798
H          0.93707        3.75386        1.38220
H          2.63501        3.52242        0.95912
H          1.61255        3.90351       -1.11170
H          1.77601        2.13647       -1.04896
H         -0.68338        3.67136       -0.62811
H         -0.39505        2.50688       -1.72938
H          1.91570        1.81428        2.47306
H          0.80927        1.25666        1.41773
C          1.64083        3.06999        0.87730
C          1.26943        2.99510       -0.60057
N          1.70193        1.74179        1.48406
N         -0.18127        2.80030       -0.77972
