26
1sa1msa1dma_10.log	Energy: -940999.3862461
S          2.23752       -0.78257       -0.08757
O          3.27393       -1.53231       -0.77023
O          0.90293       -0.74977       -0.75001
O          1.91168       -1.60033        1.29042
O          2.61225        0.58685        0.33548
H          2.68691       -2.14077        1.49228
H          1.28149        1.56520        0.25355
S         -2.27789       -0.44796       -0.04315
O         -2.54390        0.12572       -1.35246
O         -1.74803        0.47965        0.97232
O         -1.35560       -1.71418       -0.13949
H         -0.39770       -1.43847       -0.36961
C         -3.74408       -1.20616        0.60318
H         -4.48414       -0.41399        0.71915
H         -4.08475       -1.94986       -0.11675
H         -3.50547       -1.66324        1.56269
N          0.38132        2.10039        0.14550
C          0.14676        2.34796       -1.29621
C          0.41132        3.31799        0.97915
H         -0.36590        1.46798        0.49044
H          0.93274        3.00292       -1.67474
H          0.17687        1.38785       -1.80990
H         -0.83292        2.80871       -1.42824
H          1.21647        3.96916        0.63607
H         -0.54588        3.83515        0.89769
H          0.58899        3.03131        2.01559
