33
1sa1msa1ma1dma_29.log	Energy: -1001162.9909039
S         -1.58396        1.24154       -0.35454
O         -0.97276        0.18263       -1.40194
O         -1.37841        2.58688       -0.87716
O         -2.98774        0.77254       -0.26162
O         -0.86079        1.00161        0.93095
H         -2.79410       -0.78318        0.17819
H          0.60230        1.74349        0.95749
S          2.06431       -1.03964       -0.06023
O          0.99689       -2.02716        0.17406
O          2.62467       -0.40895        1.15348
O          1.64929        0.01395       -1.06583
H          0.02078        0.13129       -1.32768
C          3.40576       -1.90972       -0.85512
H          3.02445       -2.36363       -1.76986
H          4.19599       -1.19332       -1.07957
H          3.76316       -2.67375       -0.16416
N          1.54684        2.13766        0.69709
H          2.23064        1.74985        1.35084
C          1.51411        3.60910        0.59290
H          2.46723        3.97650        0.21172
H          0.70271        3.87564       -0.08517
H          1.31978        4.03529        1.57701
H          1.74806        1.65396       -0.19648
N         -2.70151       -1.79447        0.49602
C         -1.88769       -1.85219        1.74122
C         -2.14623       -2.62185       -0.60753
H         -3.65588       -2.09023        0.69833
H         -0.85916       -1.59599        1.48445
H         -2.28512       -1.12604        2.44939
H         -1.93541       -2.86365        2.14900
H         -1.10118       -2.34177       -0.74140
H         -2.22192       -3.67618       -0.33516
H         -2.71012       -2.41497       -1.51667
