32
1sa1msa1a1eda_90.log	Energy: -1011236.5864412
S         -2.43395        0.73058        0.12329
O         -1.67919        1.68040        0.97015
O         -2.03184        0.79135       -1.29186
O         -2.51478       -0.64358        0.65128
O         -3.98346        1.21866        0.20744
H         -4.00952        2.16937        0.03630
S          1.32378       -1.81871        0.16612
O          2.77980       -1.75194        0.29623
O          0.76745       -3.10562       -0.33827
O          0.75195       -0.69566       -0.66015
C          0.62267       -1.60166        1.79831
H          0.88455       -2.47652        2.39435
H          1.05116       -0.70381        2.24559
H         -0.45971       -1.49274        1.70296
N         -1.51321       -2.12154       -1.43793
H         -0.69273       -2.69167       -1.10530
H         -2.11090       -2.62198       -2.08779
H         -2.04819       -1.77525       -0.61192
H         -1.13350       -1.26626       -1.85694
H          1.87657        3.17894        1.08681
H          1.73348        1.50455        1.65159
H          4.05385        1.97966        0.81617
H          3.25398        0.71482       -0.11658
H          3.80444        3.43889       -1.00625
H          3.88353        2.03202       -1.83874
H         -0.12290        2.08831        0.19715
H          1.00897        2.42769       -1.04193
C          1.91242        2.13097        0.77581
C          3.24002        1.78685        0.10605
N          0.81923        1.89332       -0.19184
N          3.35322        2.54167       -1.14319
H          0.80488        0.86415       -0.44488
