32
1sa1msa1a1eda_192.log	Energy: -1011227.5150075
S          1.78536       -0.64531       -0.77126
O          0.41457       -0.95103       -1.28310
O          2.80693       -1.63511       -1.08103
O          2.13334        0.75068       -1.14300
O          1.58192       -0.63513        0.82152
H          0.71515        1.56934       -1.12418
H          2.40570       -1.03446        1.27004
S         -2.61327       -0.79731        0.06497
O         -3.47202       -0.82065       -1.10550
O         -1.99987        0.50323        0.40129
O         -1.50575       -1.89850        0.00315
H         -0.66508       -1.56959       -0.50899
C         -3.51946       -1.35168        1.48624
H         -4.33905       -0.64801        1.63384
H         -3.90231       -2.35008        1.27555
H         -2.84739       -1.35803        2.34351
N          3.79813       -1.79240        1.72923
H          3.70689       -2.56150        2.38404
H          4.55425       -1.19347        2.04304
H          4.04396       -2.16877        0.81499
H         -0.91736        2.64675        1.48161
H         -0.05250        4.17780        1.49011
H         -1.21024        3.81969       -0.65259
H          0.54884        3.92753       -0.89154
H         -0.89619        1.35031       -0.64585
H         -0.54140        2.06971       -2.10095
H          1.08480        1.45900        1.35760
H          1.97963        2.79109        1.01358
C         -0.05008        3.16735        1.06417
C         -0.25369        3.33076       -0.44877
N          1.14307        2.46524        1.48414
N         -0.24901        2.00832       -1.12761
