30
1sa1msa2ma_12.log	Energy: -976506.9290023
S          2.64028        0.18293        0.09437
O          2.53030        1.50284        0.74816
O          2.68018       -0.95527        1.01472
O          1.65328        0.01227       -1.00177
O          4.05068        0.19987       -0.71298
H          4.76078        0.34597       -0.07317
S         -2.63231       -0.18049       -0.08532
O         -2.48791       -1.51085       -0.73260
O         -2.68705        0.96106       -1.01285
O         -1.56775        0.01591        0.96301
C         -4.18317       -0.22962        0.79348
H         -4.97433       -0.39723        0.06224
H         -4.14694       -1.04459        1.51620
H         -4.32181        0.72753        1.29640
N          0.10480       -2.08717       -0.06625
H         -0.85811       -2.08846       -0.46781
H          0.67272       -1.38301       -0.58267
C          0.77123       -3.40458       -0.03765
H          1.75628       -3.27913        0.41088
H          0.16977       -4.10113        0.54624
H          0.86975       -3.77172       -1.05883
H         -0.00728       -1.68503        0.86775
N         -0.06865        2.09260       -0.03721
H          0.07012        1.71405       -0.97664
H         -0.62416        1.35708        0.46215
C         -0.77932        3.38711       -0.05214
H         -0.90038        3.73247        0.97438
H         -0.19775        4.11494       -0.61780
H         -1.75461        3.23147       -0.51240
H          0.87917        2.12555        0.38503
