36
1sa1msa2dma_81.log	Energy: -1025815.2754433
S         -0.47460        1.83618        0.27488
O         -1.59775        1.42332        1.12568
O          0.68251        2.38460        0.97595
O         -0.13675        0.77989       -0.72666
O         -1.03286        3.01794       -0.70078
H         -1.02125        3.84426       -0.19910
S          2.93829       -0.58307       -0.25318
O          4.06174       -1.32954       -0.77729
O          1.86802       -1.30539        0.44142
O          2.30063        0.22027       -1.46311
H          1.37381        0.52578       -1.22707
C          3.51936        0.70507        0.82456
H          3.96191        0.22027        1.69557
H          4.26889        1.28002        0.28074
H          2.66709        1.32935        1.10415
N         -0.95138       -1.70376        0.42282
C         -0.84281       -1.76258        1.89545
C         -0.65702       -2.97701       -0.26132
H         -1.92863       -1.34704        0.15646
H          0.17702       -2.03839        2.16447
H         -1.07901       -0.77295        2.28912
H         -1.55315       -2.49997        2.27513
H          0.37234       -3.26544       -0.04723
H         -1.35424       -3.74114        0.08771
H         -0.77810       -2.83174       -1.33548
H         -0.30515       -0.97760        0.07852
N         -3.34774       -0.53080       -0.27108
C         -4.64696       -1.03987        0.15400
C         -3.28096       -0.24249       -1.70421
H         -3.11482        0.32020        0.24322
H         -4.83447       -2.00849       -0.32106
H         -4.65039       -1.18226        1.23780
H         -5.47392       -0.36516       -0.11212
H         -3.40010       -1.17350       -2.26897
H         -4.06266        0.45846       -2.02977
H         -2.30413        0.18993       -1.93409
