41
1sa1msa1tma1eda_107.log	Energy: -1085211.4506729
S          0.78815        1.37491       -0.95222
O         -0.04852        2.35935       -1.63440
O          0.43048        1.24063        0.49576
O          0.80155        0.02261       -1.59714
O          2.27428        1.87880       -1.01436
H          2.90811        1.08408       -0.78319
S         -1.42321       -2.24700       -0.23954
O         -2.64921       -3.01257       -0.35915
O         -1.30445       -1.30045        0.87427
O         -1.22103       -1.48072       -1.59884
H         -0.41283       -0.84099       -1.58149
C         -0.02782       -3.34754       -0.17168
H         -0.15887       -3.97812        0.70880
H         -0.02944       -3.95064       -1.07957
H          0.88027       -2.74606       -0.07632
H          4.61906       -1.38733        1.09031
H          4.90572        0.36582        1.14780
H          3.31668       -0.37176        2.90489
H          2.57682        0.77853        1.78452
H          1.71098       -1.83141        2.30335
H          1.03990       -0.70277        1.31751
H          4.45428       -0.40780       -1.11500
H          2.97416       -0.93443       -0.63672
C          4.15624       -0.40305        0.93269
C          2.96424       -0.24195        1.87474
N          3.70151       -0.24175       -0.45458
N          1.90260       -1.19468        1.54059
N         -2.17772        1.72769        0.78739
C         -2.94690        1.32245       -0.41801
H         -2.39588        1.65262       -1.29947
H         -3.04356        0.23837       -0.42557
H         -3.93299        1.79127       -0.37856
C         -2.77372        1.19090        2.03312
H         -2.80954        0.10487        1.95387
H         -2.14023        1.47659        2.87377
H         -3.77458        1.61045        2.16001
C         -1.99611        3.20080        0.83570
H         -1.37667        3.44771        1.69821
H         -1.48324        3.50629       -0.07716
H         -2.97420        3.67996        0.92046
H         -1.19789        1.33855        0.69546
