30
1sa1msa1a1dma_25.log	Energy: -976500.0277473
S          1.80061        0.49903       -0.19129
O          3.10482        0.48847       -0.84279
O          1.55550        1.65188        0.70942
O          0.64111        0.35962       -1.12857
O          1.71684       -0.80719        0.73334
H          2.59663       -1.32363        0.68432
S         -2.06191       -1.47810       -0.08504
O         -3.22891       -2.24995       -0.45021
O         -2.26344       -0.08180        0.34148
O         -1.05745       -1.51332       -1.29197
H         -0.33003       -0.79892       -1.21734
C         -1.18031       -2.30343        1.21969
H         -1.81282       -2.27218        2.10763
H         -1.01022       -3.33289        0.90406
H         -0.23447       -1.78122        1.37876
N          4.07811       -1.98263        0.43969
H          4.71330       -1.97422        1.23048
H          4.39624       -1.29041       -0.23706
H          4.11759       -2.89932        0.00728
N         -0.99995        2.36176        0.23572
C         -1.09320        3.03393       -1.07754
C         -1.63434        3.09246        1.34926
H         -1.42584        1.41755        0.16573
H         -0.60266        4.00652       -1.01569
H         -0.58523        2.40527       -1.80837
H         -2.14361        3.15988       -1.34485
H         -1.15466        4.06597        1.46172
H         -2.69772        3.22152        1.14226
H         -1.50716        2.51373        2.26391
H          0.01354        2.17396        0.45652
