26
1sa1msa1dma_11.log	Energy: -940999.6068031
S          2.18567       -0.79616       -0.14243
O          0.90615       -0.78704        0.63924
O          2.27707       -1.87992       -1.10376
O          2.49292        0.56595       -0.61949
O          3.34318       -1.04570        0.97021
H          3.42702       -2.00019        1.09777
S         -2.30453       -0.47105        0.05019
O         -1.82765        0.51262       -0.93980
O         -2.53104        0.03893        1.39317
O         -1.35858       -1.72031        0.05339
H         -0.38990       -1.43816        0.25684
C         -3.78259       -1.22137       -0.57798
H         -4.53469       -0.43456       -0.63940
H         -3.56996       -1.63864       -1.56148
H         -4.09147       -1.99637        0.12302
N          0.31962        2.10598       -0.13473
C          0.17647        2.28230        1.32904
C          0.31811        3.36356       -0.90771
H          1.20051        1.56643       -0.32838
H         -0.79171        2.73626        1.54333
H          0.23735        1.29786        1.79181
H          0.98613        2.91849        1.68941
H         -0.62809        3.88334       -0.75010
H          1.14724        3.99021       -0.57625
H          0.43864        3.12725       -1.96481
H         -0.45495        1.49844       -0.46644
