27
1sa1msa1a1ma_181.log	Energy: -951816.4287096
S          2.37213       -0.21610       -0.44937
O          1.62947       -1.46638       -0.56065
O          3.57274       -0.03091       -1.22910
O          1.41364        0.98468       -0.81677
O          2.67767       -0.01331        1.07233
H          0.50542        0.83131       -0.43166
H          3.44462        0.68223        1.17788
S         -1.68268       -0.81695        0.11158
O         -2.29084       -1.04218       -1.18461
O         -0.92274        0.43478        0.29528
O         -0.73923       -2.03004        0.51832
H          0.16814       -1.89975        0.12977
C         -2.89556       -0.93070        1.38948
H         -3.62731       -0.13551        1.18466
H         -3.35633       -1.91631        1.31943
H         -2.39842       -0.79127        2.34881
N          4.66363        1.68094        1.12022
H          5.38230        1.52786        1.82020
H          4.39516        2.65954        1.14848
H          5.06213        1.49038        0.20314
N         -4.80162        1.52165        0.28723
H         -5.64224        1.16511       -0.15513
C         -3.89271        2.08432       -0.71711
H         -4.31024        2.93199       -1.27790
H         -2.97333        2.41207       -0.22539
H         -3.61483        1.30114       -1.42615
H         -5.09650        2.23688        0.94365
