41
1sa1msa1tma1eda_145.log	Energy: -1085207.3427512
S          0.83662       -1.19171       -0.95393
O         -0.60308       -0.84175       -0.98984
O          1.25079       -2.34706       -1.73187
O          1.64683        0.03552       -1.22707
O          1.09694       -1.51746        0.60230
H          0.76474        1.30579       -0.70583
H          2.08286       -1.72206        0.68915
S         -3.46751       -0.28775        0.48733
O         -3.52140        0.72167       -0.56687
O         -2.83259        0.09961        1.74191
O         -2.84155       -1.62848       -0.06516
H         -1.91285       -1.44837       -0.42942
C         -5.10874       -0.88034        0.82000
H         -5.54568       -1.23374       -0.11323
H         -5.04354       -1.68132        1.55576
H         -5.67180       -0.03567        1.21787
H          3.83965        0.79120       -0.24497
H          4.82147        1.40183        1.08840
H          5.65774       -0.76246        0.60009
H          4.75720       -0.91836        2.11490
H          3.79204       -1.74638       -0.53390
H          4.13591       -2.70794        0.73584
H          2.11789        0.29077        1.34982
H          3.00890        0.92634        2.56220
C          4.05774        0.66299        0.82075
C          4.65007       -0.73382        1.03984
N          2.83929        0.97570        1.56190
N          3.78709       -1.78826        0.48424
N          0.27446        2.21964       -0.50404
C         -0.31609        2.15903        0.85742
H         -0.99133        1.30666        0.92344
H          0.49643        2.05670        1.57644
H         -0.87178        3.08204        1.03873
C          1.33245        3.25288       -0.59421
H          2.09243        3.01678        0.15379
H          1.76861        3.21999       -1.59349
H          0.89322        4.23577       -0.40790
C         -0.76957        2.37730       -1.54852
H         -0.29598        2.28375       -2.52632
H         -1.51813        1.59476       -1.41976
H         -1.23222        3.36106       -1.43956
