23
1sa1msa1ma_60.log	Energy: -916314.5208817
S         -2.75897       -0.37317       -0.12017
O         -3.94899       -1.00294       -0.61651
O         -2.17876        0.77797       -0.78880
O         -3.01548        0.14546        1.38082
O         -1.67096       -1.48689        0.06491
H         -3.58278       -0.48760        1.84514
H         -0.77294       -1.07643        0.25219
S          1.20900        0.82927       -0.12065
O          1.74839        0.55288       -1.43530
O          0.58984       -0.30043        0.60477
O          0.14793        2.01505       -0.17499
H         -0.73767        1.66302       -0.44222
C          2.43000        1.55845        0.92486
H          3.19343        0.77890        1.04619
H          2.82074        2.44028        0.41712
H          1.95951        1.81626        1.87293
N          3.79139       -1.38177        0.73266
H          4.32801       -1.85625        1.45090
C          4.41493       -1.55636       -0.58171
H          4.54587       -2.60448       -0.88475
H          3.80153       -1.05386       -1.33338
H          5.39763       -1.07655       -0.57937
H          2.86119       -1.78983        0.74167
