33
1sa1msa1ma1dma_07.log	Energy: -1001169.9695936
S         -2.67997        0.33660        0.05842
O         -3.06311       -0.85802        0.80876
O         -2.51617        1.55988        0.86851
O         -1.52946        0.12152       -0.85898
O         -3.88420        0.64469       -0.99262
H         -4.70537        0.72728       -0.48894
S          2.66854       -0.04078       -0.12950
O          2.50490        0.98551       -1.17387
O          2.45571       -1.43830       -0.59725
O          1.82453        0.26071        1.07496
C          4.36361        0.02022        0.42124
H          5.00143       -0.20274       -0.43436
H          4.56407        1.02230        0.80069
H          4.49737       -0.72442        1.20588
N          0.11289        2.17943        0.11964
H          0.72983        1.50695        0.63411
H         -0.05093        1.72393       -0.78280
C          0.76027        3.49724       -0.02978
H          0.12108        4.15142       -0.62263
H          0.91485        3.93141        0.95782
H          1.71692        3.34636       -0.52932
H         -0.81798        2.20507        0.57338
N         -0.13205       -2.13635       -0.09846
C         -0.21179       -2.30032        1.37207
C         -0.73301       -3.24473       -0.86570
H         -0.62816       -1.25977       -0.36667
H          0.27680       -3.23609        1.64902
H          0.31349       -1.45940        1.82604
H         -1.26163       -2.30039        1.66695
H         -0.22179       -4.17630       -0.61790
H         -1.79157       -3.31470       -0.61106
H         -0.62307       -3.03501       -1.92962
H          0.86947       -1.98303       -0.36463
