32
1sa1msa1a1eda_04.log	Energy: -1011243.8426972
S          0.19251       -2.39330       -0.25372
O          0.30491       -1.62486        1.05912
O          0.27027       -1.23062       -1.37358
O          1.34728       -3.22576       -0.51371
O         -1.14509       -2.99364       -0.34348
H         -2.53467       -1.79599        0.69774
S         -1.74486        1.62924       -0.13949
O         -0.37684        2.20710       -0.08257
O         -2.34060        1.40388        1.20639
O         -1.82422        0.40190       -0.97615
H         -0.53105       -0.65167       -1.30507
C         -2.75594        2.85518       -0.94285
H         -2.73961        3.76017       -0.33545
H         -2.33550        3.04259       -1.93083
H         -3.76801        2.45861       -1.02306
N         -2.32047       -1.30992        1.57670
H         -2.81578       -1.73495        2.35396
H         -2.50769       -0.28361        1.49190
H         -1.27995       -1.43559        1.65494
H          3.29784       -0.42423       -0.19961
H          2.16704        0.32401       -1.32681
H          4.34069        1.59838       -1.24773
H          2.99189        2.59058       -0.68246
H          4.99539        1.31342        1.02986
H          4.51491        2.87682        1.00809
H          1.26207       -0.27649        0.92825
H          2.23565        1.00627        1.51455
C          2.71707        0.48044       -0.39940
C          3.60564        1.71649       -0.44114
N          1.73496        0.63547        0.70127
N          4.19797        1.92332        0.88172
H          0.97085        1.29793        0.43738
