36
1sa1msa1ma1tma_107.log	Energy: -1025806.8385847
S         -0.38481       -1.29479        0.15394
O          0.81430       -2.09211       -0.18295
O         -1.54308       -2.05521        0.59615
O          0.02096       -0.40521        1.45047
O         -0.69504       -0.29464       -0.90829
H          0.90743       -0.00848        1.27936
H         -1.58295        0.91145       -0.33324
S          3.47145        0.10632       -0.01103
O          4.50551       -0.37208        0.88267
O          2.30153        0.77244        0.59207
O          2.97585       -1.02141       -0.98424
H          2.09954       -1.45646       -0.67586
C          4.18678        1.22954       -1.18653
H          4.58498        2.07314       -0.62210
H          4.98853        0.70590       -1.70727
H          3.41074        1.54876       -1.88095
N         -3.98040       -0.79350       -0.80005
H         -3.87698       -0.96112       -1.79625
C         -5.26597       -1.31542       -0.33534
H         -5.40992       -2.38964       -0.51496
H         -5.35674       -1.14627        0.74218
H         -6.08478       -0.77598       -0.82177
H         -3.21786       -1.30883       -0.35832
N         -1.99502        1.80041        0.07843
C         -2.69867        1.42639        1.33274
H         -3.49974        0.73758        1.06464
H         -1.98612        0.93092        1.99229
H         -3.09845        2.33095        1.79770
C         -0.84277        2.69674        0.33539
H         -0.16379        2.20324        1.02964
H         -0.32182        2.87566       -0.60530
H         -1.20483        3.63807        0.75537
C         -2.93433        2.35674       -0.92403
H         -2.38611        2.56115       -1.84466
H         -3.70000        1.59890       -1.10238
H         -3.36982        3.28003       -0.53389
