30
1sa1msa2ma_142.log	Energy: -976476.3910971
S          1.35428       -0.63276        0.10423
O          2.52756       -1.52080        0.21371
O          0.44545       -0.67902        1.26061
O          1.75671        0.76704       -0.23483
O          0.56450       -1.20031       -1.15767
H          3.43799        0.77102       -0.66645
H         -0.29112       -0.71194       -1.23302
S         -2.10384        1.27892       -0.05727
O         -3.48157        1.71227       -0.06599
O         -1.65423        0.35402       -1.10799
O         -1.81799        0.63441        1.35825
H         -0.96026        0.11303        1.35211
C         -1.02068        2.68841       -0.09146
H         -1.18533        3.19218       -1.04479
H         -1.28736        3.33866        0.74158
H          0.00783        2.32710       -0.01592
N         -3.68927       -2.11807       -0.27228
H         -3.44291       -1.40316       -0.94860
C         -2.48733       -2.80078        0.19779
H         -1.74376       -2.15498        0.68720
H         -2.77014       -3.58429        0.90728
H         -1.99681       -3.29046       -0.64853
H         -4.15073       -1.64055        0.49450
N          4.33376        0.22490       -0.62530
H          3.92762       -0.71801       -0.40879
C          5.20656        0.69509        0.47452
H          6.08088        0.04932        0.54793
H          5.51163        1.72372        0.28545
H          4.63272        0.64342        1.39919
H          4.79649        0.22124       -1.53119
