38
1sa1msa1dma1eda_376.log	Energy: -1060533.3582881
S          0.95255       -0.61321       -0.89266
O         -0.28994       -1.11104       -1.50320
O          1.40165        0.70935       -1.34898
O          0.68114       -0.48705        0.68707
O          2.06560       -1.60446       -0.96749
H         -0.29047       -0.49985        0.88044
H          3.41726       -0.92592       -0.90697
S         -3.12952       -0.57700        0.50787
O         -3.93462        0.58794        0.81455
O         -1.90694       -0.82232        1.28357
O         -2.80446       -0.62976       -1.03461
H         -1.81508       -0.69085       -1.20460
C         -4.15707       -2.01992        0.67330
H         -4.47649       -2.07338        1.71451
H         -5.01585       -1.90063        0.01285
H         -3.56945       -2.89572        0.39927
N         -1.20900        1.95809       -0.29600
C         -1.10103        2.56992        1.01573
C         -2.17080        2.62707       -1.15507
H         -0.29918        1.93258       -0.74638
H         -2.05217        2.45282        1.54554
H         -0.32664        2.05746        1.59447
H         -0.85887        3.64843        0.98175
H         -3.17088        2.52348       -0.72267
H         -1.96273        3.70389       -1.29231
H         -2.17894        2.14634       -2.13704
H          5.18616        1.38638       -0.12100
H          3.43706        1.41948       -0.53259
H          3.84269        1.43383        1.96929
H          2.89474        0.05339        1.41977
H          5.66026       -0.00722        2.34010
H          4.45685       -1.09178        2.57242
H          4.79793       -0.31967       -1.71256
H          4.97025       -1.04357       -0.20424
C          4.23551        0.84882       -0.05708
C          3.89053        0.50455        1.39010
N          4.38228       -0.43825       -0.79226
N          4.86998       -0.46127        1.89645
