23
1sa1msa1ma_03.log	Energy: -916339.1081334
S         -1.92894       -0.73599        0.03869
O         -0.98451       -0.14572        1.06448
O         -3.13798       -1.28962        0.59012
O         -2.09638        0.26460       -1.04984
O         -1.13353       -1.97659       -0.59909
H         -1.16532        1.53307       -0.89555
H         -0.29676       -1.66169       -0.99826
S          2.01571       -0.18219       -0.04532
O          1.99245        1.28864       -0.10945
O          1.39954       -0.86425       -1.18714
O          1.39931       -0.68461        1.29013
H          0.34536       -0.53108        1.26266
C          3.69491       -0.71282        0.13401
H          4.22276       -0.40776       -0.76978
H          4.11511       -0.22872        1.01502
H          3.69608       -1.79729        0.23971
N         -0.55412        2.37628       -0.65930
H          0.41008        2.02280       -0.51196
C         -1.06580        3.02514        0.57279
H         -0.41400        3.85267        0.85246
H         -2.07914        3.38225        0.39174
H         -1.08141        2.26662        1.35448
H         -0.54804        3.01235       -1.45359
