28
1sa1msa1eda_35.log	Energy: -975730.6500841
S          2.10233       -1.01894       -0.04577
O          1.10445       -2.08412        0.25158
O          1.90824       -0.33636       -1.31517
O          2.28195       -0.11473        1.11607
O          3.50514       -1.80963       -0.20996
H          3.63432       -2.36327        0.57235
S         -2.17539       -1.01019        0.12261
O         -1.73086        0.35186       -0.23369
O         -2.33656       -1.27900        1.54018
O         -1.26840       -2.06914       -0.58345
H         -0.28925       -2.06216       -0.25101
C         -3.69457       -1.32423       -0.73932
H         -4.43261       -0.62503       -0.34551
H         -3.52961       -1.16157       -1.80377
H         -3.99010       -2.35349       -0.53790
H          1.75312        2.96015       -0.34889
H          0.81315        1.79505       -1.29404
H         -0.03254        4.15029       -1.65367
H         -1.25815        3.12925       -0.89359
H          0.34658        5.16595        0.46652
H         -1.27179        4.93561        0.51017
H          1.16514        1.14952        1.04875
H          0.18900        2.50192        1.47912
C          0.75828        2.52946       -0.48984
C         -0.28731        3.60879       -0.73379
N          0.40150        1.80666        0.75781
N         -0.38035        4.45832        0.45574
H         -0.44641        1.23363        0.58029
