30
1sa1msa2ma_47.log	Energy: -976492.8321841
S         -1.55601       -1.45503        0.12397
O         -2.43122       -0.58249       -0.64562
O         -0.46542       -2.09640       -0.66251
O         -1.03762       -0.86927        1.37888
O         -2.52265       -2.68050        0.55776
H         -1.98500       -3.34763        1.00576
S          2.37700       -0.07942       -0.18904
O          2.53194        0.27017        1.21698
O          1.48704        0.79787       -0.96687
O          1.96280       -1.57118       -0.37574
H          0.93822       -1.73456       -0.46130
C          3.97418       -0.11063       -0.96266
H          4.40304        0.88606       -0.85599
H          4.58612       -0.84982       -0.44610
H          3.84335       -0.37067       -2.01241
N         -2.62358        2.34593       -0.53806
H         -3.01215        1.40739       -0.43968
C         -2.07361        2.48394       -1.89373
H         -2.82759        2.37453       -2.68161
H         -1.59530        3.46180       -2.00041
H         -1.31683        1.71007       -2.04420
H         -3.36954        3.01496       -0.38001
N         -0.36293        1.77676        0.97722
H         -0.59879        0.81722        1.30371
H          0.33213        1.63075        0.22893
C          0.17991        2.61545        2.06155
H          0.40478        3.60930        1.67305
H         -0.56004        2.69442        2.85816
H          1.09014        2.15163        2.44216
H         -1.24478        2.15880        0.52299
