36
1sa1msa2dma_75.log	Energy: -1025815.2742949
S          1.19076        1.00341       -1.26775
O          1.44663        1.50124        0.12791
O         -0.26365        1.17868       -1.59214
O          2.08488        1.55235       -2.26406
O          1.38334       -0.57282       -1.18728
H          1.96876       -0.81570       -0.34074
S         -2.13578       -1.37024       -0.14830
O         -3.46830       -1.88883        0.07173
O         -1.47016       -0.67843        0.97534
O         -2.17838       -0.40515       -1.37945
H         -1.32975        0.18542       -1.47375
C         -1.05574       -2.67841       -0.67347
H         -0.95633       -3.37616        0.15884
H         -1.52097       -3.16522       -1.53061
H         -0.09865       -2.22808       -0.94434
N         -0.92620        2.01446        1.23580
C         -0.77859        2.26473        2.68193
C         -1.73022        3.02236        0.51236
H          0.03261        1.92723        0.79334
H         -1.76209        2.28617        3.15398
H         -0.18259        1.46137        3.11536
H         -0.27364        3.22006        2.83215
H         -2.74663        3.03011        0.90963
H         -1.26955        4.00265        0.64382
H         -1.72929        2.75613       -0.54416
H         -1.32499        1.06631        1.09874
N          2.67141       -1.06645        0.97341
C          4.01880       -1.62243        0.86821
C          1.77827       -1.83287        1.84170
H          2.71026       -0.09846        1.28701
H          3.96323       -2.60844        0.39843
H          4.62788       -0.97512        0.23407
H          4.50592       -1.72982        1.84703
H          1.67214       -2.84388        1.43612
H          2.15705       -1.91370        2.86980
H          0.79050       -1.36429        1.84679
