41
1sa1msa1tma1eda_72.log	Energy: -1085218.2150932
S         -2.61706       -0.99007        0.07207
O         -4.00437       -0.57809        0.25822
O         -1.96773       -0.38552       -1.12664
O         -1.73522       -0.90861        1.24509
O         -2.65347       -2.60086       -0.24126
H         -3.45206       -2.78028       -0.75486
S          2.76105        1.12271       -0.13982
O          1.98413        2.22227       -0.75438
O          3.39295        0.18976       -1.08637
O          1.92495        0.37934        0.88090
C          4.06914        1.89656        0.79373
H          4.69181        2.45254        0.09244
H          3.62193        2.56913        1.52568
H          4.64882        1.11675        1.28782
H         -2.08339        1.79891        1.57891
H         -0.90508        3.13188        1.57319
H         -2.99363        3.94861        0.64339
H         -1.80247        3.90246       -0.64337
H         -2.86519        1.94027       -1.51065
H         -3.90779        1.87291       -0.26517
H          0.00956        1.01309        0.80037
H         -1.06000        0.95466       -0.45219
C         -1.49952        2.46678        0.94055
C         -2.41536        3.26805        0.00890
N         -0.55340        1.61109        0.18073
N         -3.33433        2.50788       -0.81365
H          0.15762        2.13648       -0.35428
N          1.58832       -2.19274        0.07641
C          0.94357       -2.04161       -1.25690
H         -0.02878       -1.56079       -1.13729
H          1.59501       -1.42216       -1.87478
H          0.81486       -3.03183       -1.69935
C          2.94719       -2.77442       -0.04872
H          3.54118       -2.11731       -0.68414
H          3.39759       -2.83494        0.94282
H          2.86526       -3.77385       -0.48181
C          0.73742       -2.95586        1.02548
H          1.25805       -3.02372        1.98161
H         -0.21025       -2.43040        1.15505
H          0.56727       -3.95518        0.61936
H          1.70722       -1.21648        0.45429
