38
1sa1msa1dma1eda_77.log	Energy: -1060562.0611297
S          2.75639        0.11990       -0.30299
O          1.93412        0.45987        0.86846
O          2.91408       -1.33626       -0.50702
O          2.37221        0.85119       -1.52482
O          4.23100        0.66749        0.11085
H          4.84400        0.44375       -0.60246
S         -2.46036       -0.65056       -0.32198
O         -2.61978       -1.40608        0.92964
O         -1.15750       -0.94588       -1.00651
O         -2.63916        0.82181       -0.19303
C         -3.73400       -1.20613       -1.44193
H         -3.61407       -2.27987       -1.58732
H         -4.70009       -0.98706       -0.98668
H         -3.62164       -0.67518       -2.38716
N          0.55428       -2.39137        0.52242
C          0.24288       -3.78202        0.13981
C          0.38310       -2.10898        1.96653
H          1.51410       -2.13324        0.21480
H         -0.80225       -3.98344        0.37989
H          0.40397       -3.89547       -0.93225
H          0.89311       -4.46579        0.68787
H         -0.67245       -2.22340        2.21538
H          1.00286       -2.79972        2.54125
H          0.70708       -1.08431        2.14531
H         -0.08524       -1.76538       -0.02832
H          0.72066        3.74757        0.04884
H         -0.35230        3.80996       -1.37063
H         -1.36302        4.71003        0.81075
H         -2.33089        3.49028       -0.02368
H         -1.58288        3.30800        2.56569
H         -1.94294        2.00573        1.62203
H          0.68177        1.63315       -1.21776
H          0.28770        1.50359        0.35186
C         -0.20856        3.36845       -0.38173
C         -1.40089        3.65189        0.53565
N         -0.04713        1.90406       -0.53701
N         -1.32872        2.80936        1.72409
H         -0.94795        1.44073       -0.74500
