36
1sa1msa2dma_118.log	Energy: -1025813.6192638
S         -1.68638        1.63630        0.03206
O         -1.95434        1.35703       -1.38234
O         -2.70682        1.16154        0.96584
O         -0.30422        1.24339        0.44000
O         -1.60487        3.25476        0.19042
H         -2.47571        3.61925       -0.01845
S          2.73449        0.24112       -0.16420
O          3.81661       -0.34936       -0.92128
O          2.31663       -0.40406        1.08640
O          1.48107        0.34094       -1.12484
H          0.69623        0.73645       -0.60824
C          3.09044        1.94437        0.20486
H          3.92846        1.95757        0.90239
H          3.35005        2.44600       -0.72709
H          2.19908        2.38315        0.65653
N         -0.23752       -1.58941        1.29770
C          0.45974       -2.88876        1.35478
C         -1.26093       -1.40228        2.34773
H          0.46831       -0.84215        1.35040
H         -0.26840       -3.68826        1.20277
H          1.21626       -2.91393        0.57102
H          0.94521       -3.00754        2.32471
H         -2.00391       -2.19763        2.25980
H         -0.78668       -1.44999        3.32991
H         -1.74270       -0.43494        2.19757
H         -0.69866       -1.49963        0.31719
N         -1.40993       -1.57170       -1.17750
C         -2.76715       -2.08910       -1.00582
C         -0.59639       -2.36797       -2.09505
H         -1.48100       -0.61420       -1.52655
H         -2.72860       -3.06638       -0.51009
H         -3.33577       -1.39620       -0.38070
H         -3.29298       -2.21419       -1.96256
H         -0.45023       -3.37139       -1.67946
H         -1.06332       -2.47579       -3.08420
H          0.38005       -1.89258       -2.21470
