30
1sa1msa2ma_115.log	Energy: -976485.6204499
S         -0.85071       -1.54821       -0.16118
O          0.46875       -2.15810       -0.43837
O         -1.93782       -2.47085        0.11460
O         -0.68091       -0.71834        1.22195
O         -1.19716       -0.51477       -1.18517
H          0.13580       -0.17153        1.15719
H         -2.65866        0.02967       -0.85784
S          2.81345        0.26012        0.18207
O          3.75506       -0.27771        1.14329
O          1.53945        0.79111        0.69899
O          2.51431       -0.75570       -0.97746
H          1.68677       -1.33241       -0.78364
C          3.60430        1.54974       -0.74965
H          3.88491        2.32782       -0.03939
H          4.48964        1.12748       -1.22466
H          2.90099        1.92604       -1.49150
N         -3.55377        0.49817       -0.51342
H         -3.31474        1.52656       -0.44633
C         -3.93780       -0.04911        0.81180
H         -4.83913        0.45027        1.16895
H         -4.08992       -1.12387        0.72408
H         -3.10854        0.11972        1.49861
H         -4.28456        0.35368       -1.20587
N         -2.42871        3.06196       -0.24409
H         -2.34743        3.54581       -1.13383
C         -1.09751        2.60357        0.20323
H         -0.36288        3.41132        0.28425
H         -1.19395        2.12411        1.17955
H         -0.72204        1.84659       -0.48840
H         -2.80998        3.73684        0.41206
