38
1sa1msa1dma1eda_254.log	Energy: -1060545.3751069
S          0.95215        0.81163        0.70386
O          0.80197        0.05679       -0.57944
O         -0.24075        0.74399        1.55659
O          2.13154        0.14003        1.48240
O          1.33662        2.22729        0.41423
H          2.87251       -0.23844        0.80939
H         -0.00629        3.05566        0.58612
S         -1.85480       -2.29126       -0.12136
O         -2.35887       -3.60777       -0.45466
O         -2.55026       -1.11266       -0.63868
O         -0.33988       -2.24832       -0.58289
H          0.04098       -1.31011       -0.57534
C         -1.73927       -2.13244        1.64728
H         -2.75716       -2.16753        2.03834
H         -1.15693       -2.97421        2.02197
H         -1.25967       -1.17700        1.87490
N          3.88137       -0.78138       -0.14287
C          4.09068        0.21946       -1.19719
C          3.39985       -2.06534       -0.66785
H          4.75332       -0.92825        0.35854
H          3.12885        0.41911       -1.67470
H          4.45023        1.14749       -0.74785
H          4.80839       -0.12375       -1.95361
H          2.42890       -1.90529       -1.13991
H          4.09176       -2.49328       -1.40486
H          3.26771       -2.76988        0.15572
H         -2.16267        4.39644       -0.95812
H         -0.51536        3.94901       -1.47986
H         -2.32279        2.35222       -2.34371
H         -1.08889        1.54844       -1.36972
H         -3.82969        2.04720       -0.59121
H         -2.82400        0.79989       -0.22609
H         -0.98655        4.37676        1.04450
H         -1.65814        2.83053        0.94021
C         -1.38073        3.63507       -0.89377
C         -1.91495        2.26518       -1.32998
N         -0.97540        3.50029        0.53090
N         -2.87859        1.81144       -0.33315
