35
1sa1msa1ma1eda_66.log	Energy: -1035895.8464386
S         -2.74194        0.24795       -0.37756
O         -4.15068        0.11644       -0.68804
O         -2.32191        1.56139        0.15930
O         -2.11793       -0.86544        0.38052
O         -1.93331        0.09692       -1.81891
H         -2.40250        0.61794       -2.48389
S          2.32694        1.02221       -0.61014
O          3.67008        1.54053       -0.82454
O          1.96903        0.85617        0.84410
O          2.03367       -0.24199       -1.35834
H          0.77899       -1.21118       -1.17077
C          1.15727        2.22255       -1.23640
H          1.35464        2.35396       -2.30079
H          0.14044        1.85474       -1.08013
H          1.31672        3.16197       -0.70576
N         -0.42716        0.78395        2.00758
H         -1.15481        1.26216        1.43681
H         -0.64846       -0.21545        1.93306
C         -0.37869        1.25615        3.40369
H          0.40016        0.71446        3.94064
H         -0.14450        2.32027        3.40934
H         -1.34450        1.09083        3.88101
H          0.50014        0.90547        1.51992
H          2.52273       -2.42886        0.05626
H          1.99748       -3.80699        1.02466
H          1.00570       -3.76802       -1.26743
H         -0.23833       -3.74996        0.00739
H         -0.49820       -2.07176       -1.86012
H         -0.67161       -1.51772       -0.33277
H          1.29685       -2.31653        2.53305
H          1.70246       -1.05991        1.54618
C          1.66587       -2.86225        0.58220
C          0.58290       -3.18769       -0.44366
N          1.17676       -1.93173        1.60460
N          0.01768       -1.92977       -0.99376
