38
1sa1msa1dma1eda_123.log	Energy: -1060550.8611650
S          0.84986        0.32512       -1.02222
O          1.86360        0.19803       -2.05847
O          1.06675        1.48665       -0.10779
O         -0.56226        0.35404       -1.51283
O          0.89960       -0.98274       -0.11726
H          1.88763       -1.30801        0.01896
S         -2.95525       -1.30474        0.30745
O         -4.28519       -1.87080        0.35015
O         -2.74697        0.01402        0.93184
O         -2.49968       -1.24583       -1.19503
H         -1.67273       -0.66088       -1.32986
C         -1.79384       -2.42794        1.04683
H         -1.91485       -3.39561        0.55989
H         -0.79117       -2.02532        0.88653
H         -2.03599       -2.49548        2.10807
N         -1.41992        2.36853        0.40878
C         -1.56198        3.07202        1.69722
C         -1.94565        3.10569       -0.75923
H         -0.40842        2.11734        0.23748
H         -2.61872        3.25876        1.89440
H         -1.14974        2.44146        2.48482
H         -1.01706        4.01645        1.65580
H         -3.01481        3.27848       -0.62531
H         -1.42049        4.05797       -0.84849
H         -1.76590        2.49637       -1.64449
H         -1.90248        1.45155        0.47536
H          5.34121       -1.39415       -0.33110
H          4.06361       -0.68893       -1.35577
H          5.10397        1.04752        0.04551
H          3.40146        0.83516        0.45493
H          5.67594       -0.09431        2.04553
H          4.37037        0.76696        2.52066
H          3.41299       -2.76174       -0.16549
H          3.52164       -1.90986        1.24255
C          4.34627       -0.92590       -0.32770
C          4.38265        0.35364        0.49903
N          3.33548       -1.83499        0.24211
N          4.67991        0.03049        1.89831
