40
1sa1msa2eda_36.log	Energy: -1095296.0706542
S          2.03630       -1.78719       -0.36458
O          0.93166       -2.38741       -1.12056
O          2.67760       -0.64672       -1.05839
O          1.71028       -1.50172        1.04572
O          3.19797       -2.92037       -0.24085
H          3.43318       -3.20157       -1.13543
S         -2.09046        1.66304       -0.35679
O         -2.91457        0.69173       -1.09343
O         -1.09274        2.38662       -1.19102
O         -1.44224        1.06496        0.85529
C         -3.19960        2.91823        0.26024
H         -3.67161        3.39837       -0.59719
H         -3.94728        2.43343        0.88839
H         -2.62083        3.63985        0.83676
H         -2.00331       -3.39053        1.49585
H         -2.25345       -1.95870        2.52960
H         -4.30004       -2.60476        1.14202
H         -3.74594       -0.94537        0.88943
H         -3.96028       -2.90272       -1.08076
H         -3.29115       -1.39363       -1.22275
H         -0.14439       -1.82341        1.21728
H         -1.03515       -1.96598       -0.15955
C         -2.20576       -2.31693        1.49850
C         -3.48929       -1.99835        0.72567
N         -1.07878       -1.64485        0.81779
N         -3.28454       -2.26047       -0.69245
H         -1.21403       -0.60483        0.80850
H          1.17668        2.74749        1.16651
H          1.24066        0.97474        1.22923
H          3.33718        1.97057        2.18580
H          3.64914        0.98666        0.74979
H          3.69688        3.91163        0.86808
H          4.77848        2.88688        0.19187
H          0.52652        1.98875       -0.94632
H          2.13621        2.53304       -1.07558
C          1.70257        1.86273        0.79890
C          3.19455        1.91773        1.09934
N          1.52383        1.81502       -0.67466
N          3.79212        3.03628        0.36473
H          1.85215        0.88744       -1.01755
