39
1sa1msa1dma1tma_54.log	Energy: -1050472.9181542
S         -1.21194        0.23838       -0.46028
O         -0.77756       -1.05192        0.16213
O         -1.70680        1.17538        0.56731
O         -0.15845        0.80653       -1.32823
O         -2.41412       -0.09738       -1.42338
H         -3.23976       -0.29407       -0.82281
S          2.65261       -1.48352        0.08605
O          2.67879       -1.36091        1.54022
O          2.87384       -0.24576       -0.66537
O          1.36086       -2.21348       -0.40523
H          0.48145       -1.69765       -0.19302
C          3.85811       -2.68227       -0.43112
H          4.83649       -2.28430       -0.16066
H          3.66237       -3.61732        0.09283
H          3.77468       -2.80998       -1.50985
N         -4.31636       -0.50394        0.31972
C         -4.10106       -1.81329        0.93936
C         -5.70661       -0.25363       -0.04846
H         -3.98540        0.22303        0.95156
H         -4.36896       -2.59327        0.22083
H         -3.04162       -1.92195        1.18179
H         -4.70450       -1.95164        1.84749
H         -6.01357       -0.98163       -0.80494
H         -6.39283       -0.33542        0.80687
H         -5.79608        0.74565       -0.48080
N          1.40175        2.42796        0.14931
C          2.75131        2.79593       -0.33954
H          3.38368        1.91069       -0.29649
H          2.66787        3.13600       -1.37233
H          3.14761        3.59734        0.28857
C          0.44353        3.55921        0.05314
H          0.40375        3.89650       -0.98285
H         -0.53921        3.19491        0.35614
H          0.78334        4.36791        0.70432
C          1.43935        1.87221        1.52948
H          0.42526        1.57488        1.80053
H          2.09594        1.00237        1.54616
H          1.80709        2.64585        2.20793
H          1.00368        1.67758       -0.47353
