38
1sa1msa1dma1eda_260.log	Energy: -1060545.6078126
S         -0.75903       -1.73681       -0.67871
O         -0.48224       -3.08703       -1.13031
O          0.22954       -0.75160       -1.25341
O         -2.17818       -1.29879       -1.18424
O         -0.79756       -1.57263        0.81341
H         -2.66671       -0.72420       -0.44364
H          0.64367       -1.21568        1.43493
S          1.07024        2.35338       -0.21776
O          2.34844        2.51100       -0.88974
O          1.07543        1.66814        1.08501
O         -0.00204        1.70091       -1.14927
H          0.06719        0.64515       -1.18989
C          0.32863        3.95412        0.00559
H          0.22283        4.42092       -0.97345
H         -0.64037        3.82573        0.48723
H          1.00245        4.53374        0.63713
N         -3.33505        0.02956        0.69193
C         -4.77381        0.19201        0.49014
C         -2.63449        1.29113        0.93987
H         -3.15449       -0.60683        1.46424
H         -4.94106        0.78850       -0.41087
H         -5.23365       -0.78722        0.34082
H         -5.26230        0.69369        1.33692
H         -2.68551        1.90822        0.03834
H         -3.07322        1.84834        1.77963
H         -1.58348        1.08185        1.14977
H          3.49116       -1.84165        2.12063
H          2.13472       -2.99918        2.03587
H          3.63857       -2.97294       -0.04112
H          1.93464       -2.69197       -0.37938
H          4.06176       -0.83264       -0.78920
H          2.46895       -0.72713       -1.23677
H          1.54929       -0.65702        2.74656
H          1.92916       -0.16779        1.20908
C          2.56628       -2.09713        1.59677
C          2.82081       -2.25635        0.09190
N          1.61755       -0.97230        1.78241
N          3.10686       -0.95007       -0.48154
