40
1sa1msa2eda_243.log	Energy: -1095278.3822855
S          0.48120       -1.44701        0.08424
O         -0.75766       -2.20467       -0.00629
O          0.88424       -0.79878       -1.20219
O          0.48979       -0.43468        1.18265
O          1.61993       -2.50332        0.43045
H         -1.01777        0.36265        1.30505
H          2.49401       -2.05190        0.35316
S          3.89241        0.50924       -0.03171
O          5.13439        1.14476       -0.40946
O          3.85921       -0.94958        0.12746
O          2.78620        0.93300       -1.08057
H          2.05540        0.23146       -1.14871
C          3.29957        1.22666        1.48461
H          4.02966        0.98515        2.25803
H          3.23085        2.30544        1.34358
H          2.32728        0.78071        1.70422
H         -6.23744       -0.85947        0.25950
H         -6.36303        0.64333       -0.65274
H         -4.91953       -1.01290       -1.77778
H         -4.06300        0.49535       -1.41351
H         -3.79233       -1.93135        0.21344
H         -2.67325       -1.30675       -0.78671
H         -5.97417        1.36055        1.47491
H         -4.87419        0.21596        1.81164
C         -5.67485        0.03205       -0.06118
C         -4.52165       -0.38974       -0.96418
N         -5.20447        0.83339        1.07670
N         -3.46965       -1.06101       -0.20086
H          0.02309        1.74429       -0.42480
H         -0.94066        2.99119       -1.20137
H         -1.50133        2.84913        1.16964
H         -2.92007        2.36210        0.20821
H         -2.38479        0.91823        2.11311
H         -2.57701        0.08210        0.66992
H         -1.78799        1.39667       -2.55796
H         -0.73834        0.31404       -1.89741
C         -0.99289        1.99334       -0.74997
C         -1.89443        2.09801        0.47789
N         -1.47451        0.98473       -1.68867
N         -1.96514        0.79609        1.19520
