30
1sa1msa1a1dma_04.log	Energy: -976510.5391333
S          2.27952       -0.56853       -0.29076
O          1.53432        0.00890        0.88762
O          1.42213       -0.08597       -1.56616
O          3.59928       -0.01691       -0.49960
O          2.17967       -2.04896       -0.24220
H          1.01757       -2.48078        0.83360
S         -2.24000       -0.40211       -0.14700
O         -2.30778        0.87872        0.60914
O         -2.07351       -1.58534        0.74007
O         -1.24309       -0.35339       -1.24532
H          0.47741       -0.35057       -1.45778
C         -3.83135       -0.60894       -0.91868
H         -4.58731       -0.63114       -0.13395
H         -3.99446        0.23315       -1.59123
H         -3.81792       -1.54806       -1.47175
N          0.32853       -2.40701        1.63366
H         -0.61979       -2.13179        1.26480
H          0.68288       -1.62336        2.18447
H          0.28145       -3.25942        2.18287
N          0.07092        2.21722        0.43729
C          0.23377        2.81502       -0.90549
C          0.33264        3.14669        1.55267
H         -0.88838        1.80892        0.52150
H          1.28365        3.06499       -1.06275
H         -0.07673        2.08015       -1.64619
H         -0.38652        3.71050       -0.97618
H          1.35310        3.52448        1.47356
H         -0.37645        3.97517        1.51200
H          0.21460        2.60864        2.49318
H          0.70987        1.38498        0.54210
