35
1sa1msa1ma1eda_94.log	Energy: -1035887.0263537
S          1.87422       -1.56022       -0.18399
O          0.60179       -1.57654       -0.96745
O          2.91873       -0.79546       -0.85196
O          1.64462       -1.25680        1.23768
O          2.37216       -3.10539       -0.13232
H          2.76400       -3.31576       -0.99078
S         -2.52009       -0.42194       -0.08758
O         -2.44233        0.27996       -1.36190
O         -2.17032        0.35675        1.11056
O         -1.72144       -1.76140       -0.11398
H         -0.72992       -1.67857       -0.44399
C         -4.15945       -1.06079        0.14463
H         -4.82867       -0.20223        0.20679
H         -4.40656       -1.68426       -0.71405
H         -4.17792       -1.63610        1.06971
N          0.42591        1.10542        1.92428
H          0.80567        1.90939        1.33455
H         -0.55253        0.93282        1.64150
C          0.53067        1.38952        3.36756
H          0.12990        0.54942        3.93462
H          1.57963        1.53405        3.62706
H         -0.03263        2.29310        3.60321
H          0.94881        0.23864        1.67776
H          2.24445        3.18449       -1.69469
H          2.59599        1.73445       -0.73039
H          0.97753        1.22613       -2.51720
H          0.28225        0.96220       -0.93963
H         -0.36744        3.16144       -2.72127
H         -1.34591        2.16721       -1.85951
H          2.06884        3.78205        0.59817
H          0.54063        3.69027       -0.01101
C          1.82150        2.46619       -0.97707
C          0.63726        1.74654       -1.61361
N          1.36186        3.14238        0.25040
N         -0.46888        2.67906       -1.83464
