36
1sa1msa1ma1tma_82.log	Energy: -1025808.0808715
S         -0.07651       -1.14558       -0.32994
O          1.18069       -1.92304       -0.30313
O         -1.28752       -1.90493       -0.05557
O          0.00548       -0.10584        0.91483
O         -0.16814       -0.28382       -1.54188
H          0.89298        0.32538        0.89875
H         -1.42426        0.70781       -1.39959
S          3.72285        0.31072        0.34000
O          4.48141       -0.10239        1.50341
O          2.44981        1.01635        0.56767
O          3.47923       -0.88605       -0.64919
H          2.55380       -1.30731       -0.53115
C          4.74311        1.34254       -0.68464
H          4.99984        2.22367       -0.09581
H          5.64019        0.77965       -0.94243
H          4.17919        1.61460       -1.57603
N         -2.18829        1.41205       -1.17440
H         -2.55188        1.78207       -2.04947
C         -1.62864        2.48185       -0.31788
H         -2.41083        3.19619       -0.05653
H         -1.23020        2.00905        0.57952
H         -0.81638        2.98831       -0.83966
H         -2.98452        0.89846       -0.64448
N         -4.14684        0.15779        0.28642
C         -5.34399        0.98724        0.39397
H         -5.09138        1.94805        0.85274
H         -5.76046        1.17165       -0.60100
H         -6.12136        0.50606        1.00871
C         -4.44478       -1.12048       -0.36905
H         -4.86594       -0.93347       -1.36173
H         -3.52000       -1.69203       -0.47110
H         -5.17237       -1.70796        0.21241
C         -3.54070       -0.06768        1.60414
H         -2.62783       -0.65494        1.48773
H         -3.29067        0.89422        2.06162
H         -4.23121       -0.60345        2.27404
