39
1sa1msa1dma1tma_86.log	Energy: -1050470.7007052
S          0.05581       -0.29237       -1.01191
O          0.18956        0.06025        0.44113
O          0.73378       -1.52987       -1.36617
O         -1.36225       -0.18369       -1.42279
O          0.74631        0.92225       -1.80421
H          1.68129        0.98554       -1.49364
S          3.67884        0.02869        0.45038
O          4.88911        0.38452        1.15558
O          3.18208        0.93531       -0.59438
O          2.53881       -0.17534        1.53003
H          1.62196       -0.10511        1.11339
C          3.85514       -1.58639       -0.27136
H          4.63860       -1.51292       -1.02666
H          4.14481       -2.27805        0.51952
H          2.90016       -1.86454       -0.72304
N         -3.47739       -1.44940        0.27196
C         -4.74884       -2.11985        0.04217
C         -2.65158       -2.13964        1.25638
H         -2.95211       -1.39375       -0.59737
H         -5.35770       -2.07714        0.95260
H         -5.29830       -1.61171       -0.75609
H         -4.63901       -3.18082       -0.23689
H         -3.13033       -2.08471        2.24176
H         -2.49196       -3.20399        1.02061
H         -1.67394       -1.65385        1.32111
N         -2.48195        1.62662        0.27930
C         -1.58018        2.75814       -0.05813
H         -0.58723        2.53282        0.32944
H         -1.52534        2.85158       -1.14270
H         -1.97474        3.67288        0.38929
C         -3.85763        1.83347       -0.23221
H         -3.80639        1.99656       -1.30923
H         -4.42580        0.92768       -0.01853
H         -4.29902        2.70266        0.26037
C         -2.46868        1.32528        1.73220
H         -3.13626        0.48123        1.90176
H         -1.44954        1.05620        2.00853
H         -2.80337        2.20980        2.27916
H         -2.10334        0.79460       -0.23567
