36
1sa1msa1ma1tma_106.log	Energy: -1025807.9928633
S         -0.45717       -1.23149       -0.41699
O          0.39505       -0.46137       -1.35975
O         -0.87038       -0.36970        0.73698
O         -1.59047       -1.90382       -1.04123
O          0.45133       -2.38947        0.18752
H          1.30895       -2.00001        0.48269
S          3.39167        0.05140        0.19868
O          4.45389       -0.29674       -0.72250
O          2.70876       -1.03659        0.91222
O          2.30911        0.97000       -0.49145
H          1.53531        0.41051       -0.86018
C          4.02018        1.19205        1.40685
H          4.81620        0.67512        1.94375
H          4.41559        2.06097        0.88115
H          3.21071        1.46895        2.08104
N         -1.18691        2.56804        0.06570
H         -0.91366        3.35278        0.64866
C         -0.69098        2.76910       -1.30061
H          0.38895        2.95609       -1.36191
H         -0.89496        1.87133       -1.89016
H         -1.21549        3.61106       -1.76292
H         -0.74779        1.73699        0.45978
N         -3.49115        0.09452        0.49512
C         -3.71963        0.55826       -0.89793
H         -3.19184        1.50476       -1.02075
H         -3.31662       -0.19378       -1.57692
H         -4.79284        0.68972       -1.05614
C         -4.12991       -1.21986        0.75021
H         -3.71596       -1.93942        0.04341
H         -3.89299       -1.53236        1.76782
H         -5.21105       -1.12149        0.62798
C         -3.89018        1.12493        1.48217
H         -3.64325        0.76766        2.48276
H         -3.32780        2.03277        1.25504
H         -4.96580        1.30002        1.40282
H         -2.44653       -0.05364        0.60076
