39
1sa1msa1dma1tma_47.log	Energy: -1050475.9005749
S          1.05420        0.42167        0.29937
O          1.03222       -0.96638       -0.24994
O          1.18819        1.43911       -0.75745
O         -0.10032        0.68062        1.19819
O          2.32442        0.49226        1.22942
H          3.13802        0.18058        0.65519
S         -2.35000       -1.89985       -0.12943
O         -3.36277       -2.88164       -0.45905
O         -2.66946       -0.48125       -0.31470
O         -1.06126       -2.26569       -0.96237
H         -0.26332       -1.68715       -0.71917
C         -1.82499       -2.11081        1.55842
H         -2.70178       -1.94427        2.18564
H         -1.45614       -3.12958        1.67553
H         -1.05192       -1.36813        1.76704
N          4.21141       -0.36191       -0.34994
C          4.32696       -1.80904       -0.15741
C          5.49058        0.34213       -0.29052
H          3.76386       -0.18187       -1.24573
H          4.71177       -2.00295        0.84794
H          3.33317       -2.25296       -0.24138
H          5.00414       -2.27510       -0.88657
H          5.91951        0.22072        0.70831
H          6.21482       -0.03568       -1.02596
H          5.32659        1.40758       -0.46597
N         -1.77681        2.38174       -0.08963
C         -3.12742        2.42884        0.52011
H         -3.64064        1.49663        0.28825
H         -3.01742        2.53204        1.60027
H         -3.66953        3.28687        0.11601
C         -0.96625        3.57648        0.25788
H         -0.89321        3.64648        1.34333
H          0.02950        3.43958       -0.16447
H         -1.45049        4.46657       -0.15022
C         -1.83564        2.17783       -1.56190
H         -0.81283        2.06891       -1.92312
H         -2.39519        1.26432       -1.75667
H         -2.32284        3.04460       -2.01501
H         -1.26314        1.56595        0.33232
