24
1sa1msa2a_56.log	Energy: -927171.9243464
S          1.25646       -0.73003       -0.19364
O          1.59995       -0.74115        1.24903
O          0.52011        0.52612       -0.55392
O          2.41176       -0.96671       -1.06127
O          0.25582       -1.93054       -0.47285
H         -0.61791       -1.73728       -0.04961
S         -2.71684        0.18552        0.23777
O         -3.96807        0.53431        0.86792
O         -2.12891       -1.13186        0.51094
O         -1.66244        1.30627        0.60843
H         -0.75699        1.03336        0.26142
C         -2.85828        0.34528       -1.53057
H         -3.54914       -0.42663       -1.87134
H         -3.24827        1.33869       -1.75128
H         -1.86766        0.20202       -1.96587
N          4.11574        0.13246        0.84878
H          4.91391        0.19703        1.47246
H          3.82885        1.07508        0.41808
H          4.27975       -0.51457        0.07396
H          3.25187       -0.23600        1.31735
N          2.99258        2.33340       -0.39654
H          2.87421        3.22623        0.07246
H          2.06113        1.92621       -0.52892
H          3.36198        2.52380       -1.32350
