36
1sa1msa2dma_84.log	Energy: -1025813.0277106
S          0.97687        2.05056        0.11768
O          2.11658        1.74624       -0.73815
O         -0.25053        2.47908       -0.61906
O          0.66262        1.03805        1.13695
O          1.45703        3.38511        0.91053
H          0.70618        3.71729        1.42064
S         -2.43607       -0.21529       -0.20483
O         -2.16725       -0.64258        1.17225
O         -1.59654       -0.83899       -1.22747
O         -2.43031        1.33527       -0.33200
H         -1.47692        1.76957       -0.43315
C         -4.14666       -0.53160       -0.56234
H         -4.30143       -1.60598       -0.46100
H         -4.75509        0.01590        0.15701
H         -4.35033       -0.20266       -1.58085
N          0.53019       -1.74150        1.11887
C          1.32208       -1.71421        2.36238
C         -0.08965       -3.04292        0.81431
H         -0.20365       -1.02224        1.17396
H          2.13011       -2.44514        2.28658
H          1.72744       -0.70935        2.47806
H          0.68323       -1.95912        3.21326
H          0.69414       -3.79721        0.71484
H         -0.77809       -3.32316        1.61329
H         -0.63691       -2.94429       -0.12358
H          1.18246       -1.46606        0.28999
N          2.21415       -1.18560       -0.95155
C          1.57057       -1.55049       -2.21405
C          3.52378       -1.80570       -0.77615
H          2.31693       -0.16745       -0.92345
H          1.39190       -2.63165       -2.23573
H          0.60720       -1.04195       -2.28663
H          2.18542       -1.28656       -3.08611
H          3.41083       -2.89250       -0.68854
H          4.20445       -1.60103       -1.61504
H          3.98542       -1.42906        0.14047
