35
1sa1msa1ma1eda_123.log	Energy: -1035888.9734466
S          2.49921       -0.54622       -0.25480
O          2.51780       -0.47010       -1.71278
O          2.65248        0.75429        0.42904
O          1.37652       -1.33472        0.32206
O          3.77867       -1.44585        0.18572
H          4.54037       -1.13985       -0.32492
S         -2.02448       -1.37177        0.00366
O         -2.78675       -0.37519       -0.74152
O         -1.60244       -1.00588        1.36008
O         -0.79573       -1.86158       -0.82996
H          0.11509       -1.62302       -0.40024
C         -2.99241       -2.85823        0.08870
H         -3.91451       -2.61637        0.61782
H         -3.20514       -3.18090       -0.93033
H         -2.41694       -3.61097        0.62672
N          0.20362        1.19569        1.65333
H          1.09497        1.18273        1.12005
H         -0.48545        1.84267        1.19160
C          0.43324        1.51744        3.07248
H         -0.51282        1.46688        3.61215
H          1.13630        0.79845        3.49291
H          0.85086        2.52127        3.15337
H         -0.20615        0.25677        1.54789
H         -2.23904        3.00276       -1.78499
H         -1.40297        4.24468       -0.84757
H          0.07094        3.07941       -2.46576
H          0.65475        2.98124       -0.80308
H         -0.89172        0.79459       -2.01258
H          0.73978        0.81449       -1.87092
H         -2.62608        3.07679        0.70554
H         -2.28789        1.61608        0.06317
C         -1.48439        3.16415       -1.00088
C         -0.13604        2.63377       -1.47988
N         -1.88974        2.53421        0.26612
N         -0.12201        1.17718       -1.47033
