32
1sa1msa1a1eda_181.log	Energy: -1011230.6334472
S          1.36196       -1.69915       -0.08477
O          2.70493       -1.32840       -0.52109
O          0.28581       -1.02470       -0.85711
O          1.12528       -3.25661       -0.47776
O          1.15364       -1.60871        1.37455
H          1.77397       -3.79141       -0.00014
H          0.69235        0.03848        1.80924
S         -2.73955        0.28172       -0.02841
O         -2.30335        1.29164       -0.98771
O         -2.47496        0.56376        1.38675
O         -2.19143       -1.13275       -0.41872
H         -1.17168       -1.13055       -0.58026
C         -4.47813       -0.01311       -0.21973
H         -4.98602        0.91182        0.05461
H         -4.66879       -0.26750       -1.26171
H         -4.76473       -0.82568        0.44711
N          0.31164        1.00141        1.89240
H          0.79957        1.49059        2.63552
H         -0.70167        0.94354        2.04547
H          0.48946        1.52125        0.96251
H          3.00375        3.37780       -0.08374
H          3.94088        2.20838       -1.01964
H          1.90571        2.54686       -2.19249
H          1.83849        0.92768       -1.49045
H          0.42311        3.28119       -0.47364
H         -0.22717        1.89898       -1.04554
H          3.20465        0.51911        0.55157
H          3.89160        1.74457        1.38522
C          3.04689        2.32329       -0.38772
C          1.83092        1.99316       -1.24653
N          3.08616        1.49628        0.82037
N          0.57369        2.27803       -0.54137
