27
1sa1msa1a1ma_185.log	Energy: -951813.6615372
S         -1.87255        0.40969        0.36352
O         -0.81421        0.38671        1.36923
O         -2.96053        1.34643        0.50513
O         -1.22279        0.69093       -1.05000
O         -2.41828       -1.04995        0.25565
H         -0.37609        0.17989       -1.13668
H         -3.37732       -1.03651       -0.17046
S          2.05863       -1.04333       -0.10430
O          3.27803       -0.28447       -0.28030
O          0.96050       -0.83848       -1.05966
O          1.50116       -0.84811        1.36315
H          0.61835       -0.37754        1.36878
C          2.45098       -2.77358       -0.08496
H          2.88277       -3.01163       -1.05746
H          3.17630       -2.94553        0.71023
H          1.53258       -3.33372        0.08667
N         -4.80698       -0.82541       -0.73004
H         -4.88095       -0.93089       -1.73713
H         -5.00355        0.14641       -0.49893
H         -5.51846       -1.40570       -0.29692
N          2.98310        2.91717       -0.19651
H          3.46194        2.02290       -0.16252
C          1.55375        2.70554       -0.39288
H          1.05297        2.13341        0.40458
H          1.04525        3.67076       -0.47516
H          1.39855        2.17809       -1.33835
H          3.15815        3.38954        0.68332
