28
1sa1msa1eda_169.log	Energy: -975708.3478015
S         -2.19609       -1.26233        0.08140
O         -3.47574       -1.87479        0.30135
O         -1.44721       -0.65156        1.16879
O         -1.17865       -2.36865       -0.49328
O         -2.34143       -0.24863       -1.09951
H         -1.66967       -2.98852       -1.05273
H         -1.54314        0.36745       -1.15334
S          0.07090        2.32806       -0.11065
O         -0.28234        3.68468       -0.45040
O         -0.23795        1.24836       -1.07196
O         -0.64970        1.97074        1.26327
H         -0.86466        1.00991        1.31347
C          1.79012        2.20296        0.28426
H          2.34113        2.39674       -0.63734
H          2.00945        2.96470        1.03282
H          1.96322        1.18543        0.66525
H          1.70990       -2.45578       -0.52496
H          1.40730       -0.80058       -1.06348
H          3.64659       -1.47125       -1.74028
H          3.76041       -0.19637       -0.51702
H          4.19715       -3.04774       -0.00212
H          5.25551       -1.81790        0.19938
H          0.77786       -1.18464        1.27739
H          2.37068       -1.39951        1.63223
C          1.99499       -1.40329       -0.36248
C          3.47695       -1.24257       -0.67704
N          1.72270       -0.94148        0.99662
N          4.27346       -2.06387        0.23539
