38
1sa1msa1dma1eda_186.log	Energy: -1060545.8338226
S          0.81796        1.59881       -0.32287
O          1.87940        2.13025       -1.16915
O         -0.08738        0.62075       -1.01760
O          1.50544        0.75740        0.83902
O         -0.01986        2.62462        0.34834
H          2.53840        0.76003        0.69620
H         -1.55065        2.10166        0.42879
S         -2.00011       -1.87985       -0.13053
O         -2.83132       -1.68412       -1.30882
O         -2.32826       -1.03372        1.03281
O         -0.47942       -1.76764       -0.46211
H         -0.21982       -0.78307       -0.70274
C         -2.06948       -3.57595        0.38556
H         -1.74016       -4.19681       -0.44723
H         -1.42308       -3.70137        1.25335
H         -3.10880       -3.78719        0.63824
N         -2.52989        1.70155        0.44699
C         -3.09874        1.77401       -0.91790
C         -3.32803        2.38410        1.48246
H         -2.42030        0.70162        0.70184
H         -3.20541        2.82243       -1.20028
H         -2.40808        1.27154       -1.59442
H         -4.06719        1.27230       -0.93379
H         -3.41000        3.44322        1.23403
H         -4.32152        1.93534        1.53228
H         -2.82481        2.27280        2.44293
H          4.51269       -1.51446        1.57413
H          4.90830       -2.49076        0.15571
H          5.69981       -0.34179       -0.39013
H          4.16440       -0.49872       -1.26881
H          4.61622        1.04791        1.18027
H          4.05742        1.57168       -0.27549
H          2.66077       -2.94986        0.73960
H          2.21630       -1.37962        0.60466
C          4.26161       -1.68099        0.51033
C          4.61126       -0.42086       -0.27414
N          2.87947       -2.07576        0.27713
N          4.06065        0.78530        0.37126
