36
1sa1msa1ma1tma_68.log	Energy: -1025811.1890640
S         -1.05031       -1.92772        0.15921
O         -2.05300       -1.78401       -0.88710
O          0.10903       -2.77803       -0.09671
O         -0.64119       -0.57215        0.68766
O         -1.84331       -2.61352        1.40284
H         -1.21855       -3.18668        1.86659
S          2.58267        0.24155       -0.16575
O          3.76710        1.02328        0.11851
O          1.60114        0.75533       -1.12386
O          1.84483       -0.01009        1.21767
H          0.89316       -0.28791        1.05338
C          3.04803       -1.39667       -0.67456
H          3.53286       -1.30462       -1.64719
H          3.74339       -1.78962        0.06718
H          2.14414       -2.00764       -0.73150
N         -1.65257        1.86423        2.12662
H         -2.37354        2.00972        2.82551
C         -0.37072        2.38815        2.60659
H         -0.02744        1.95032        3.55343
H          0.40363        2.19292        1.85956
H         -0.44489        3.47197        2.73682
H         -1.57571        0.86024        1.97806
N         -1.46581        1.33799       -1.22171
C         -2.92732        1.33094       -0.94808
H         -3.27984        0.30161       -1.01590
H         -3.07647        1.72315        0.05848
H         -3.42336        1.96255       -1.68846
C         -0.87787        2.68803       -1.01734
H         -1.12369        3.00272       -0.00225
H          0.20106        2.61122       -1.14810
H         -1.31160        3.37103       -1.75137
C         -1.16001        0.79353       -2.57161
H         -0.07791        0.75240       -2.68677
H         -1.58231       -0.20911       -2.63634
H         -1.60592        1.45343       -3.31910
H         -1.03561        0.69528       -0.52381
