30
1sa1msa2ma_49.log	Energy: -976491.8078941
S          1.41032        0.57774       -0.50931
O          1.33758        1.10564        0.87478
O          1.10337       -0.89476       -0.53311
O          0.58469        1.35358       -1.44795
O          2.89310        0.68433       -1.01460
H          3.43502       -0.11563       -0.63472
S         -2.38145       -1.01642       -0.02417
O         -2.61436       -0.40437       -1.32286
O         -2.37652       -0.08687        1.12290
O         -1.10056       -1.90157       -0.00825
H         -0.19898       -1.40581       -0.24374
C         -3.60425       -2.26363        0.29123
H         -4.57025       -1.75900        0.31976
H         -3.56941       -2.98753       -0.52232
H         -3.38337       -2.73415        1.24869
N          4.00598       -1.43060        0.03353
H          3.25584       -2.07213       -0.21397
C          4.07006       -1.25680        1.49149
H          4.25264       -2.19394        2.02944
H          4.86598       -0.54867        1.73199
H          3.12551       -0.82671        1.83180
H          4.87411       -1.80430       -0.33520
N         -1.09683        2.30913        0.48917
H         -0.79721        2.12599       -0.48787
H         -1.72708        1.52988        0.76076
C         -1.68461        3.64581        0.68722
H         -1.91114        3.78906        1.74352
H         -0.97229        4.40194        0.35816
H         -2.60057        3.72460        0.10219
H         -0.21024        2.14529        1.00143
