38
1sa1msa1dma1eda_281.log	Energy: -1060544.7400109
S         -0.15507       -1.71383        0.38928
O         -0.36555       -0.84073       -0.84854
O          0.17008       -0.85926        1.54778
O         -1.42871       -2.49592        0.61938
O          0.94587       -2.68276        0.07500
H         -2.59733       -1.82773        0.25667
H          2.07566       -2.09258       -0.68560
S         -0.20453        2.59702       -0.13898
O         -0.85137        3.87129       -0.39542
O          1.12341        2.34662       -0.69608
O         -1.19271        1.46398       -0.61458
H         -0.75286        0.50189       -0.67809
C         -0.11560        2.33312        1.62018
H          0.62389        3.03178        2.01404
H         -1.09816        2.54297        2.04406
H          0.16943        1.29211        1.79481
N         -3.56415       -1.31211       -0.00560
C         -3.59603       -1.05514       -1.46270
C         -3.68105       -0.09096        0.82376
H         -4.30475       -1.96545        0.24378
H         -2.73407       -0.43936       -1.71715
H         -3.51504       -2.00872       -1.98484
H         -4.52318       -0.54647       -1.73608
H         -2.89814        0.60496        0.51825
H         -4.66090        0.37002        0.67942
H         -3.53841       -0.36578        1.86933
H          3.60754        0.27146       -1.77475
H          1.87405        0.18962       -1.35594
H          3.22506        1.27867        0.45535
H          2.39240       -0.17786        1.00064
H          5.26150        0.10705        0.56027
H          4.46194       -0.72509        1.71934
H          2.91988       -1.95552       -2.17482
H          3.78596       -1.93883       -0.73476
C          2.87123       -0.15632       -1.08791
C          3.20097        0.18903        0.36046
N          2.92381       -1.63996       -1.20887
N          4.45375       -0.47969        0.73704
