32
1sa1msa1a1eda_161.log	Energy: -1011228.9114106
S          0.75679        2.13404       -0.15606
O         -0.53012        2.06752       -0.89894
O          0.57615        2.06562        1.29772
O          1.79817        1.23509       -0.67544
O          1.35067        3.60033       -0.51104
H          0.66694        4.25534       -0.31570
S         -2.41935       -0.83053       -0.20584
O         -2.38157       -1.50351        1.08962
O         -1.39296       -1.17709       -1.18234
O         -2.45461        0.72185        0.02508
H         -1.64849        1.22780       -0.36894
C         -4.02451       -1.10346       -0.91908
H         -4.13354       -2.17768       -1.07096
H         -4.77516       -0.73537       -0.22000
H         -4.07344       -0.56925       -1.86747
N          0.01526       -0.53153        2.72706
H          0.06285       -0.65253        3.73303
H         -0.85454       -0.95175        2.39626
H         -0.04280        0.46896        2.52885
H          1.38190       -2.95773        0.43987
H          0.65680       -1.67698       -0.55285
H          2.36081       -2.94686       -1.87255
H          2.83340       -1.25891       -1.65210
H          3.99037       -3.55892       -0.26256
H          4.74840       -2.30958       -0.99537
H          1.32647       -0.91845        1.70125
H          2.96211       -1.27374        1.21998
C          1.58493       -2.02549       -0.09587
C          2.68797       -2.20911       -1.12930
N          2.02641       -1.01685        0.89636
N          3.93587       -2.56289       -0.44667
H          2.08005       -0.09179        0.42079
