40
1sa1msa2eda_142.log	Energy: -1095287.7390416
S          0.88340        0.09832        1.13688
O          0.74252       -1.41649        0.62097
O         -0.21755        0.38887        2.05021
O          2.23487        0.06578        1.76351
O          0.87259        0.94528       -0.08703
H          3.09976       -0.92127        0.90896
H         -0.77597        1.24284       -0.69276
S         -2.70714       -1.73835       -0.50232
O         -3.33874       -2.87359       -1.16344
O         -3.44337       -0.44264       -0.64293
O         -1.26630       -1.52634       -0.89308
H         -0.09154       -1.50757        0.03294
C         -2.66674       -2.07564        1.25381
H         -3.69740       -2.15645        1.60067
H         -2.14196       -3.01956        1.40679
H         -2.14454       -1.26021        1.75930
H         -3.15926        2.65381        0.32281
H         -1.86820        1.86468        1.26638
H         -1.51028        4.33765        1.19364
H         -0.20345        3.45046        0.39749
H         -2.33712        4.92985       -0.96285
H         -0.72069        5.02513       -1.18857
H         -2.40962        0.77801       -0.86552
H         -1.78504        2.18303       -1.64225
C         -2.08699        2.44334        0.36758
C         -1.26091        3.72098        0.32010
N         -1.74628        1.60126       -0.80259
N         -1.47758        4.39071       -0.96484
H          3.73302       -1.69321       -1.91222
H          2.31252       -0.78365       -1.32102
H          4.07424        0.77609       -2.19753
H          3.75348        1.01076       -0.47855
H          6.12739       -0.24807       -1.63535
H          6.02020        0.82210       -0.40396
H          3.09456       -2.47240        0.26751
H          4.56123       -1.63093        0.36506
C          3.37580       -0.97221       -1.17155
C          4.18377        0.31782       -1.20748
N          3.55517       -1.56851        0.18125
N          5.56966        0.02320       -0.83302
