41
1sa1msa1tma1eda_211.log	Energy: -1085201.1237370
S         -2.10925       -1.21387       -0.61596
O         -2.96881       -2.37719       -0.48404
O         -2.75934        0.08252       -0.79762
O         -1.03403       -1.11403        0.42914
O         -1.19937       -1.48537       -1.96141
H         -1.69842       -2.09613       -2.51986
S          2.27371       -1.21330        0.28894
O          3.56507       -1.64841        0.77138
O          1.76209        0.09613        0.71308
O          1.21762       -2.32083        0.69087
H          0.28188       -1.96704        0.56263
C          2.24688       -1.25530       -1.48924
H          2.60786       -2.23467       -1.80353
H          1.22157       -1.09055       -1.82711
H          2.91386       -0.46742       -1.84240
H          1.08587        3.26213       -2.83929
H          1.90846        1.71972       -2.76724
H         -0.43023        1.24498       -2.83697
H          0.14370        0.85045       -1.21696
H         -1.25072        3.34210       -1.86177
H         -1.88884        2.02455       -1.13961
H          1.49670        3.56043       -0.52792
H          2.18124        2.08219       -0.38895
C          1.27086        2.39806       -2.18729
C         -0.04907        1.68297       -1.90189
N          2.02743        2.85696       -1.02997
N         -1.02924        2.55984       -1.25113
N         -0.73326        1.07434        2.03629
C         -2.19724        1.31201        2.12467
H         -2.51718        1.84376        1.23033
H         -2.70604        0.35002        2.16911
H         -2.40279        1.89892        3.02219
C         -0.23687        0.27555        3.18599
H         -0.77299       -0.67344        3.20393
H          0.82720        0.09427        3.04025
H         -0.41375        0.83338        4.10778
C          0.01385        2.34827        1.86971
H          1.07743        2.11829        1.83298
H         -0.30845        2.79773        0.92467
H         -0.21122        2.99473        2.72121
H         -0.58736        0.47645        1.19948
