30
1sa1msa1a1dma_77.log	Energy: -976495.5520862
S          1.71070       -1.19783       -0.03521
O          2.59495       -0.04143        0.14981
O          0.94706       -1.61277        1.14768
O          0.84538       -1.05509       -1.24100
O          2.74866       -2.39079       -0.37350
H          2.26413       -3.22760       -0.37256
S         -2.40453       -0.20606       -0.16067
O         -3.78262        0.01770       -0.53396
O         -1.57904        0.96182        0.18501
O         -1.71553       -0.99833       -1.33571
H         -0.70684       -1.03830       -1.24576
C         -2.31938       -1.33657        1.20847
H         -2.78779       -0.84577        2.06273
H         -2.87194       -2.23519        0.93386
H         -1.26660       -1.55723        1.40248
N          0.36478        1.19690        2.52733
H          0.61036        1.37240        3.49584
H          0.66796        0.25000        2.30299
H         -0.64796        1.20954        2.45311
N          0.93164        2.11965       -0.34377
C          1.16329        3.43363        0.29131
C          0.87873        2.14536       -1.82341
H          1.66159        1.44019       -0.04462
H          0.36699        4.11810       -0.00522
H          1.15193        3.27658        1.36946
H          2.12830        3.82221       -0.03739
H          0.03245        2.75738       -2.13788
H          1.81062        2.56362       -2.20602
H          0.75974        1.12070       -2.17495
H          0.04668        1.71631        0.00815
