32
1sa1msa1a1eda_141.log	Energy: -1011232.3417538
S         -2.62173       -0.85612       -0.08262
O         -1.79020       -0.36284        1.01504
O         -2.91178        0.17266       -1.11057
O         -2.17418       -2.13666       -0.66532
O         -4.05058       -1.17448        0.62802
H         -4.61838       -1.61459       -0.01906
S          2.86801       -0.41434       -0.14828
O          2.86592        0.79636       -0.99052
O          2.58900       -1.67427       -0.90441
O          1.98588       -0.30445        1.04763
C          4.53503       -0.58883        0.46985
H          5.20424       -0.69085       -0.38480
H          4.77939        0.30607        1.04282
H          4.58033       -1.47564        1.10225
N          0.37397       -2.48962        0.37413
H          0.47205       -3.33610        0.92623
H          0.46289       -1.66128        0.98052
H          1.18140       -2.37881       -0.29276
H         -0.55245       -2.46794       -0.09894
H         -1.45841        3.84406        0.90316
H         -1.96687        2.18280        1.34175
H          0.54109        2.74864        1.79609
H          0.23280        1.28132        0.87873
H          1.31742        3.75587       -0.16954
H          1.62187        2.19091       -0.60096
H         -2.36625        3.19698       -1.08256
H         -0.75625        2.67605       -1.21399
C         -1.31792        2.77900        0.70037
C          0.15686        2.37037        0.84293
N         -1.67805        2.53890       -0.72746
N          0.88832        2.85147       -0.32715
H         -2.06142        1.57076       -0.88900
