35
1sa1msa1ma1eda_262.log	Energy: -1035880.3890041
S          0.12300       -0.15034       -0.85348
O          1.31529        0.26872       -1.58803
O         -1.05484       -0.44872       -1.69212
O          0.39011       -1.21840        0.14669
O         -0.24689        1.16314        0.02082
H          1.61931       -0.68273        1.12577
H         -1.14064        1.03744        0.42137
S         -3.85259        0.08241        0.23996
O         -4.68810        1.07391       -0.40658
O         -2.69588        0.56076        1.01546
O         -3.37071       -1.02065       -0.77463
H         -2.44304       -0.81763       -1.14591
C         -4.85386       -0.91943        1.31123
H         -5.27288       -0.25410        2.06664
H         -5.64631       -1.36733        0.71188
H         -4.22171       -1.68167        1.76483
N          2.66481        2.15696        0.25948
H          2.30623        1.76704       -0.61597
C          3.96167        2.80949        0.06112
H          3.93667        3.60682       -0.69054
H          4.31081        3.23565        1.00532
H          4.69565        2.06486       -0.25987
H          1.96122        2.82477        0.56150
H          4.53657       -0.51620        1.79356
H          3.57072       -2.00234        1.86393
H          3.01350       -1.71526       -0.57921
H          4.00574       -0.27076       -0.62305
H          4.99762       -2.98355       -0.15506
H          5.48000       -1.89804       -1.27114
H          2.25152       -0.14589        2.59089
H          2.55592        0.74876        1.16582
C          3.68159       -1.03871        1.35829
C          3.90173       -1.24559       -0.13793
N          2.45358       -0.23938        1.59828
N          5.14129       -1.99292       -0.32113
