26
1sa1msa1dma_14.log	Energy: -940999.1405949
S          1.87592       -0.94341        0.01625
O          2.55853        0.04195        0.86004
O          1.11781       -2.00282        0.65480
O          1.06908       -0.21723       -1.04105
O          3.03134       -1.72356       -0.80974
H          3.72891       -1.09098       -1.02663
S         -2.27475       -0.38952        0.06377
O         -3.65546       -0.12613       -0.27496
O         -1.58135        0.56718        0.94558
O         -1.47401       -0.49487       -1.29632
H         -0.46691       -0.49349       -1.17319
C         -2.10777       -1.99926        0.78916
H         -2.64102       -1.97584        1.74017
H         -2.56146       -2.71762        0.10641
H         -1.04315       -2.19755        0.93347
N          0.42392        2.20643        0.07167
C          1.28792        2.93232        1.02717
C         -0.20655        3.04285       -0.97246
H          0.94671        1.43027       -0.38458
H          0.68334        3.65394        1.57838
H          1.73442        2.20106        1.69985
H          2.07558        3.44742        0.47578
H         -0.83100        3.80095       -0.49832
H          0.57134        3.51877       -1.57077
H         -0.82212        2.40125       -1.60397
H         -0.32989        1.69209        0.57146
