33
1sa1msa1a1tma_69.log	Energy: -1001144.3927406
S         -0.96291        0.44490       -0.43884
O         -1.17140       -1.00921       -0.32612
O         -0.00558        0.88104       -1.45835
O         -2.28825        1.15269       -0.55679
O         -0.37178        0.87834        0.97980
H         -3.36802        0.23991       -0.13686
H          0.27376        1.67045        0.85741
S          3.78579       -0.52702        0.20417
O          3.77117        0.93292        0.17360
O          4.45738       -1.23173        1.27178
O          4.49398       -1.00069       -1.18131
H          4.52545       -0.24133       -1.78009
C          2.14088       -1.15279        0.00294
H          1.68208       -0.67521       -0.86444
H          2.20493       -2.23396       -0.11475
H          1.57803       -0.89188        0.90087
N          1.37564        2.77528        0.45765
H          1.14407        2.94677       -0.51760
H          2.28994        2.32405        0.47385
H          1.43600        3.66267        0.94392
N         -4.16580       -0.44127        0.17631
C         -3.75930       -0.98945        1.49219
H         -2.79803       -1.48765        1.36331
H         -3.64247       -0.16339        2.19473
H         -4.52258       -1.68569        1.85015
C         -5.40731        0.35440        0.26015
H         -5.26986        1.14643        0.99718
H         -5.60588        0.80248       -0.71409
H         -6.24149       -0.28822        0.55408
C         -4.24613       -1.50185       -0.85496
H         -4.49748       -1.04037       -1.81068
H         -3.26371       -1.96916       -0.92919
H         -5.01276       -2.22883       -0.57362
