40
1sa1msa2eda_116.log	Energy: -1095293.6141931
S          2.37899        1.55760        0.18854
O          3.37493        0.60636        0.69598
O          1.48847        0.91206       -0.83466
O          1.62066        2.32597        1.16598
O          3.20556        2.69403       -0.63500
H          3.80556        2.24747       -1.24678
S         -2.39674       -1.70164       -0.10967
O         -1.58172       -2.66113       -0.88295
O         -3.24346       -0.79322       -0.89560
O         -1.51909       -0.92529        0.85649
C         -3.47747       -2.66956        0.92971
H         -4.11997       -3.26250        0.27817
H         -2.86525       -3.31728        1.55719
H         -4.07181       -1.98988        1.54046
H          2.33860       -1.50828        1.50104
H          1.47865       -3.06930        1.50268
H          3.87698       -3.27608        0.82346
H          2.76963       -3.84262       -0.43324
H          3.94223       -1.14287       -0.45131
H          4.34641       -2.38891       -1.46535
H          0.14520       -1.36046        0.47757
H          1.37359       -0.96095       -0.58529
C          1.97588       -2.32674        0.87536
C          3.12446       -2.94661        0.09044
N          0.96661       -1.74034       -0.03832
N          3.60715       -1.99496       -0.89725
H          0.54760       -2.42016       -0.68126
H         -1.63506        2.97594       -1.56421
H         -2.27083        1.31222       -1.73154
H         -4.07594        2.87567       -1.02135
H         -3.75416        1.61939        0.17344
H         -2.93325        4.42940        0.38691
H         -3.70341        3.49942        1.49176
H         -0.12863        1.48363       -0.46943
H         -0.96239        2.34661        0.69678
C         -2.06927        2.12466       -1.03251
C         -3.33874        2.51890       -0.29004
N         -1.06629        1.65288       -0.05038
N         -3.00978        3.48733        0.75465
H         -1.35555        0.74568        0.37794
