38
1sa1msa1dma1eda_95.log	Energy: -1060561.4610800
S          1.42227       -1.40517       -0.78729
O          1.15891       -0.26211       -1.87425
O          0.82154       -2.65025       -1.24615
O          2.90304       -1.41297       -0.66881
O          0.81460       -0.89344        0.48374
H          3.21813       -0.25515        0.39195
H         -0.66629       -1.54765        0.82615
S         -2.03723        1.23218       -0.47042
O         -1.66766        1.45735        0.94736
O         -2.81571       -0.02565       -0.65866
O         -0.88255        1.33807       -1.40106
H          0.29322        0.20581       -1.71333
C         -3.13984        2.55331       -0.93971
H         -4.01284        2.51579       -0.28788
H         -2.60863        3.49765       -0.81961
H         -3.42548        2.40114       -1.98045
N         -1.65827       -1.87025        0.95330
C         -2.10634       -1.51964        2.31525
C         -1.76539       -3.30027        0.60252
H         -2.19141       -1.27753        0.27205
H         -1.48385       -2.04110        3.04470
H         -2.00775       -0.43898        2.42815
H         -3.15013       -1.81354        2.44024
H         -1.20262       -3.89070        1.32771
H         -2.81572       -3.59699        0.61400
H         -1.32911       -3.44256       -0.38619
H          3.92140        2.55505        1.06893
H          3.81403        1.78956       -0.53845
H          1.86671        3.38243        0.02055
H          1.37026        1.75752       -0.43621
H          1.18925        2.91811        2.19535
H          0.25060        1.78283        1.45890
H          4.17002        0.36132        1.65013
H          2.49468        0.55778        1.70973
C          3.34071        1.87401        0.44096
C          1.87908        2.33332        0.33792
N          3.33670        0.53720        1.09621
N          1.21274        2.08941        1.61303
