30
1sa1msa2ma_64.log	Energy: -976494.2844794
S         -1.34403        1.39958        0.00685
O         -2.62054        0.71272       -0.19906
O         -0.69813        1.20631        1.30296
O         -0.41761        1.13323       -1.14805
O         -1.63022        2.99242       -0.03894
H         -2.16438        3.18479       -0.82166
S          2.59323       -0.23888       -0.03231
O          3.96981       -0.56960       -0.33128
O          1.57252       -1.28791       -0.12191
O          2.18148        0.95869       -0.98578
H          1.18469        1.08282       -1.01017
C          2.48681        0.48945        1.58640
H          2.74155       -0.28746        2.30839
H          3.20886        1.30467        1.63159
H          1.46637        0.85162        1.73145
N         -1.13476       -1.82506        1.39812
H         -0.50923       -2.49634        1.83286
C         -2.51159       -1.97374        1.88585
H         -2.59919       -1.87448        2.97393
H         -3.12402       -1.20027        1.41727
H         -2.90130       -2.95323        1.59444
H         -0.78609       -0.89482        1.63352
N         -0.85081       -1.66233       -1.31883
H         -0.95593       -1.79644       -0.24431
H         -0.62539       -0.65904       -1.44088
C         -2.08846       -2.02733       -2.03355
H         -1.96067       -1.88195       -3.10664
H         -2.33186       -3.07063       -1.82937
H         -2.88311       -1.37749       -1.66646
H         -0.02764       -2.18825       -1.60745
