28
1sa1msa1eda_81.log	Energy: -975729.6847926
S         -1.08149       -1.66957       -0.01296
O         -1.70393       -0.90683       -1.08924
O          0.21555       -2.31680       -0.35817
O         -0.99031       -0.93095        1.26417
O         -2.09566       -2.90764        0.22300
H         -1.69995       -3.51050        0.86719
S          2.39580        0.36596       -0.02494
O          2.17238        1.05270        1.24848
O          1.49635        0.76899       -1.11386
O          2.38456       -1.18108        0.14862
H          1.45895       -1.62436       -0.05303
C          4.07936        0.61566       -0.52255
H          4.72756        0.22390        0.26109
H          4.23846        0.09168       -1.46438
H          4.22401        1.68940       -0.64311
H         -1.96845        3.06853        1.36254
H         -0.93639        3.68055        0.03810
H         -3.25947        3.36814       -0.71920
H         -2.18138        2.27381       -1.58573
H         -4.40728        1.46444       -0.34501
H         -3.09623        0.47857       -0.45655
H          0.16137        1.86446        1.21719
H         -1.08626        0.82139        0.93305
C         -1.53365        2.83495        0.38912
C         -2.63535        2.47690       -0.60365
N         -0.61747        1.68236        0.57517
N         -3.43115        1.37106       -0.09817
H         -0.15727        1.40172       -0.30630
