40
1sa1msa2eda_265.log	Energy: -1095274.8532539
S          0.32851       -1.74794       -0.59105
O          0.41197       -0.38799       -1.13330
O         -0.92554       -2.44222       -0.95614
O          1.54162       -2.56544       -0.79612
O          0.31855       -1.59743        1.02433
H          2.69281       -2.09789        0.24801
H         -0.50840       -1.12950        1.27821
S         -3.03299        0.06215        0.24410
O         -2.86012        1.38189       -0.33250
O         -2.09981       -0.33548        1.31228
O         -3.06763       -1.04847       -0.86461
H         -2.19917       -1.58794       -0.92894
C         -4.68455       -0.08085        0.88083
H         -4.79678        0.68249        1.65131
H         -5.38040        0.09612        0.06082
H         -4.81079       -1.07956        1.29711
H         -0.88020        3.42967       -0.09516
H          0.26180        3.98323        1.14622
H          1.18067        4.51382       -1.02327
H          2.16730        3.26466       -0.27548
H          1.02462        1.65691       -1.72600
H          0.20624        2.87349       -2.42440
H         -0.50780        1.77240        1.62564
H          0.01039        1.21445        0.20706
C          0.11185        3.24760        0.34614
C          1.18451        3.45921       -0.72433
N          0.21696        1.90602        0.92722
N          1.06578        2.65114       -1.93207
H          5.19947       -0.54576        0.60667
H          4.41474       -1.06239       -0.91142
H          4.03179        1.42223       -0.34060
H          2.55130        0.48168       -0.54442
H          3.58746        1.49451        1.96335
H          2.01805        1.29273        1.44120
H          3.99317       -2.41030        1.28676
H          2.97446       -1.09189        1.59934
C          4.24261       -0.67944        0.09541
C          3.42620        0.62070        0.09695
N          3.44012       -1.66979        0.86445
N          2.96352        0.87796        1.45578
