30
1sa1msa1a1dma_45.log	Energy: -976498.2660584
S          1.28644       -1.51434        0.11368
O          2.24899       -0.78276        0.93668
O          0.30653       -2.35362        0.79501
O          0.64689       -0.60830       -0.90130
O          2.23049       -2.51196       -0.75985
H          1.67362       -3.21572       -1.11898
S         -2.58457        0.12618       -0.10171
O         -3.88625        0.59454       -0.52669
O         -1.62206        1.09204        0.43667
O         -1.91768       -0.60666       -1.33945
H         -0.92456       -0.68350       -1.20031
C         -2.77387       -1.17976        1.08937
H         -3.19169       -0.73273        1.99218
H         -3.46099       -1.91518        0.67069
H         -1.79154       -1.62008        1.27628
N          3.73678        1.32850       -0.52050
H          3.91815        1.08934       -1.49041
H          3.59737        0.45112       -0.01371
H          4.56869        1.78051       -0.15598
N          1.07211        2.03416        0.06327
C          0.44860        3.12233       -0.71570
C          1.00635        2.22019        1.52956
H          0.61797        1.13816       -0.18219
H          0.94721        4.06411       -0.47940
H          0.56226        2.90217       -1.77760
H         -0.61061        3.17175       -0.46325
H          1.54793        3.13020        1.79519
H         -0.03930        2.29291        1.82685
H          1.46914        1.35073        1.99711
H          2.08247        1.90546       -0.21512
