30
1sa1msa2ma_129.log	Energy: -976480.3513031
S          1.35326       -0.58212        0.12207
O          0.37146       -0.22544        1.16591
O          2.41871       -1.50378        0.57259
O          0.58155       -1.41011       -0.99341
O          1.92874        0.62561       -0.53159
H         -0.32483       -1.03041       -1.14117
H          3.59795        0.35229       -0.83249
S         -2.89297       -0.54597       -0.10599
O         -3.93106       -1.52580       -0.33507
O         -1.85585       -0.35555       -1.13581
O         -2.17465       -0.91153        1.25927
H         -1.21061       -0.64840        1.25159
C         -3.61543        1.03866        0.21930
H         -4.11241        1.35342       -0.69951
H         -4.34120        0.90953        1.02272
H         -2.80790        1.72863        0.50109
N         -0.81554        2.61827        0.68769
H         -0.56534        3.40217        1.28038
C         -0.55135        2.92473       -0.71833
H          0.50083        3.14600       -0.94233
H         -0.84615        2.06516       -1.32662
H         -1.16332        3.77882       -1.02628
H         -0.24887        1.82569        0.98072
N          4.43383       -0.23117       -0.57305
H          3.91953       -1.03049       -0.12544
C          5.29654        0.46617        0.40620
H          6.08139       -0.20799        0.74763
H          5.73338        1.35170       -0.05426
H          4.67082        0.75871        1.24880
H          4.93442       -0.53974       -1.40278
