41
1sa1msa1tma1eda_189.log	Energy: -1085201.5117198
S         -1.47914       -1.95241       -0.62756
O         -1.25733       -2.85514        0.50172
O         -2.83267       -1.43287       -0.78901
O         -0.42508       -0.88362       -0.68595
O         -1.12349       -2.78028       -1.98478
H         -1.83239       -3.42004       -2.13691
S         -1.71254        2.19728       -0.01232
O         -1.52031        3.63141       -0.04149
O         -1.33525        1.45264        1.19133
O         -0.90842        1.59397       -1.24391
H         -0.78563        0.60323       -1.11734
C         -3.39905        1.79808       -0.40162
H         -4.01483        2.17596        0.41546
H         -3.65139        2.29564       -1.33798
H         -3.47930        0.71190       -0.49143
H          4.38912        2.00528       -1.00954
H          5.50275        0.95420       -1.86735
H          3.31406        0.68272       -2.86346
H          3.70011       -0.80525       -1.99167
H          1.83334        1.26602       -1.12620
H          1.55641       -0.31906       -1.31475
H          4.26483        0.25672        0.68853
H          5.47423       -0.54655       -0.06030
C          4.64633        0.95277       -1.18455
C          3.46185        0.25712       -1.85902
N          5.07219        0.37430        0.08461
N          2.26312        0.35004       -1.02092
N          0.70896       -0.59070        1.89140
C         -0.32217       -0.92564        2.91023
H         -1.01353       -0.08729        2.98167
H         -0.85175       -1.81813        2.57616
H          0.17795       -1.10006        3.86530
C          1.63581       -1.72776        1.65030
H          1.04444       -2.58507        1.32717
H          2.33064       -1.42808        0.86482
H          2.16736       -1.94834        2.57856
C          1.44451        0.65513        2.23220
H          2.11550        0.87921        1.40201
H          0.71839        1.45772        2.35180
H          2.00133        0.48777        3.15681
H          0.21193       -0.43901        0.99254
