28
1sa1msa1eda_177.log	Energy: -975707.1769002
S          1.63625       -1.38461       -0.10318
O          2.74433       -0.64457       -0.65974
O          0.50878       -1.77971       -0.92843
O          2.22466       -2.75856        0.47307
O          1.13442       -0.69880        1.20728
H          3.17514       -2.65136        0.62167
H          0.16862       -0.43284        1.13963
S         -2.40520        0.00078        0.10922
O         -2.72499        1.37523       -0.20820
O         -1.43898       -0.27882        1.18226
O         -1.95123       -0.77144       -1.20111
H         -1.00195       -1.05492       -1.13669
C         -3.90199       -0.86985        0.49619
H         -4.32316       -0.39953        1.38525
H         -4.58047       -0.76647       -0.35060
H         -3.65858       -1.91498        0.68329
H          0.55896        3.57649       -0.98281
H         -0.62277        2.85210        0.13022
H          1.41045        3.64997        1.27132
H          1.15896        1.91321        1.49988
H          3.47683        2.75638        0.83998
H          2.91099        1.51072       -0.04711
H         -0.42204        1.48618       -1.75825
H          1.19031        1.35714       -1.61100
C          0.36046        2.71396       -0.32952
C          1.42419        2.68210        0.75878
N          0.32967        1.44835       -1.07566
N          2.75460        2.48810        0.18207
