33
1sa1msa1ma1dma_179.log	Energy: -1001143.8406327
S          1.08026       -0.29786        0.63657
O         -0.09290        0.02753        1.46965
O          2.13684       -1.07083        1.31454
O          0.58112       -1.29014       -0.51658
O          1.63383        0.90424       -0.04333
H         -0.31366       -1.01394       -0.84591
H          3.30499        0.57315       -0.34237
S         -3.05225       -0.70536       -0.27634
O         -3.97666       -1.77112       -0.59161
O         -1.88562       -0.49649       -1.15343
O         -2.52688       -0.94481        1.19996
H         -1.60918       -0.57076        1.33242
C         -3.91819        0.83609       -0.16061
H         -4.31590        1.05056       -1.15365
H         -4.72864        0.70175        0.55636
H         -3.20484        1.60648        0.16586
N         -1.37205        2.72291        0.51158
H         -1.27297        3.58636        1.03417
C         -0.93968        2.90326       -0.87430
H          0.10938        3.20853       -0.98542
H         -1.06847        1.95721       -1.40731
H         -1.57604        3.65045       -1.35972
H         -0.78869        2.02612        0.96894
N          4.09698       -0.11143       -0.26462
C          5.36760        0.54344        0.09761
C          4.13046       -0.93332       -1.49579
H          3.71738       -0.68975        0.51352
H          5.66368        1.22478       -0.70107
H          5.22242        1.10066        1.02295
H          6.13892       -0.21477        0.24062
H          4.39075       -0.29843       -2.34365
H          4.87027       -1.72662       -1.38089
H          3.13909       -1.36442       -1.64234
