33
1sa1msa1a1tma_71.log	Energy: -1001137.5269023
S          2.99002       -0.56039       -0.35870
O          1.74913       -1.32666       -0.40985
O          4.17521       -1.08706       -0.99238
O          2.73958        0.86281       -0.99566
O          3.26817       -0.26527        1.15250
H          1.84908        1.21406       -0.71458
H          4.27177       -0.01029        1.27556
S         -0.88987        0.87333       -0.16931
O         -1.53458        0.74441       -1.46200
O          0.36702        1.64182       -0.11271
O         -0.62882       -0.55324        0.47995
H          0.25087       -0.91007        0.17613
C         -2.02351        1.52946        1.01534
H         -2.27836        2.53364        0.67356
H         -2.90631        0.87224        1.00835
H         -1.52886        1.55973        1.98548
N          5.81902        0.25730        1.26964
H          6.07746        1.23811        1.22939
H          6.11586       -0.18490        0.40201
H          6.32502       -0.17386        2.03658
N         -4.48089       -0.45355        0.29747
C         -3.85885       -1.65995       -0.23013
H         -3.08574       -1.38748       -0.95220
H         -3.38545       -2.21728        0.58302
H         -4.59163       -2.32100       -0.72975
C         -5.50057       -0.77302        1.28104
H         -5.05949       -1.35295        2.09725
H         -5.91653        0.14831        1.70083
H         -6.33296       -1.36126        0.85025
C         -5.01641        0.37039       -0.77525
H         -5.43649        1.29182       -0.35868
H         -4.21266        0.63656       -1.46726
H         -5.81440       -0.14440       -1.34246
