29
1sa1msa1tma_31.log	Energy: -965651.3965324
S          1.17544        1.71568       -0.10125
O          0.44028        2.91369       -0.47546
O          2.63083        1.75270       -0.07393
O          0.79622        1.36383        1.45188
O          0.65136        0.50793       -0.85360
H         -0.16705        1.22064        1.49715
H          1.28227       -0.79104       -0.42004
S         -2.31275       -0.32097        0.04486
O         -1.68174       -1.59135       -0.25246
O         -1.89355        0.44075        1.21938
O         -3.89269       -0.62438        0.26252
H         -4.17582       -0.18096        1.07537
C         -2.34680        0.70627       -1.39727
H         -1.30105        0.90695       -1.64258
H         -2.85649        0.15293       -2.18612
H         -2.87334        1.62606       -1.14383
N          1.77192       -1.69025       -0.06896
C          1.35890       -1.86668        1.34427
H          1.63135       -0.96690        1.89679
H          0.27599       -1.99133        1.37178
H          1.85608       -2.74673        1.76055
C          1.32023       -2.81257       -0.92034
H          0.23776       -2.90165       -0.82991
H          1.58274       -2.59524       -1.95637
H          1.81006       -3.73505       -0.59762
C          3.22890       -1.43972       -0.19032
H          3.46892       -1.28714       -1.24280
H          3.47061       -0.52543        0.35306
H          3.77836       -2.29788        0.20496
