35
1sa1msa1ma1eda_280.log	Energy: -1035873.2348502
S         -1.42810       -1.12536       -0.07791
O         -0.50963       -1.26679       -1.21745
O         -2.65334       -1.94541       -0.16251
O         -0.69208       -1.67526        1.21945
O         -1.76426        0.30968        0.18501
H          0.23044       -1.30929        1.25877
H         -3.39710        0.41196        0.63742
S          2.79259       -0.88856        0.09206
O          3.87948       -1.74876        0.50155
O          1.72776       -0.58442        1.07009
O          2.11467       -1.52912       -1.18816
H          1.12660       -1.37848       -1.20684
C          3.41811        0.65570       -0.50516
H          3.87153        1.17068        0.34260
H          4.15726        0.43376       -1.27518
H          2.55985        1.22075       -0.88838
N         -4.34001       -0.05970        0.63793
H         -4.01460       -1.03618        0.43968
C         -5.20259        0.45417       -0.44908
H         -6.13228       -0.11314       -0.48054
H         -5.41118        1.51027       -0.28100
H         -4.66396        0.32966       -1.38784
H         -4.77406       -0.00265        1.55594
H         -0.79836        2.73663        0.88313
H          0.10499        4.25208        1.04914
H         -0.42761        3.83837       -1.27033
H          1.33082        3.79234       -1.02342
H         -0.29802        1.34379       -1.09116
H          0.54478        1.91589       -2.37317
H          1.19324        2.67172        2.37749
H          1.27242        1.56413        1.18690
C          0.17467        3.21942        0.68898
C          0.39509        3.25899       -0.81871
N          1.28398        2.56374        1.37333
N          0.50758        1.90473       -1.35976
