35
1sa1msa1ma1eda_264.log	Energy: -1035879.2996791
S         -0.36314       -0.09822       -1.07411
O          0.15843        0.75910        0.03164
O         -1.59999        0.39881       -1.66559
O          0.72443       -0.04615       -2.23192
O         -0.47379       -1.51896       -0.63123
H          1.62098       -0.19201       -1.84296
H         -2.05088       -1.84804       -0.70985
S          3.53173        0.03945        0.36742
O          4.37348        1.21786        0.39806
O          3.06903       -0.44982       -0.93878
O          2.28894        0.20466        1.32486
H          1.43813        0.42598        0.80926
C          4.36939       -1.29696        1.18545
H          5.28817       -1.48528        0.62938
H          4.59504       -0.98318        2.20453
H          3.71816       -2.17020        1.17461
N         -2.21626        2.46436        0.98619
H         -2.07901        3.06349        1.79362
C         -2.57386        3.26216       -0.19138
H         -1.84710        4.05005       -0.42987
H         -2.64108        2.59228       -1.05116
H         -3.55156        3.72962       -0.03726
H         -1.33086        1.99006        0.81102
H         -4.40230       -2.63124        0.93155
H         -2.68011       -3.02352        1.18786
H         -3.49350       -1.12499        2.68761
H         -2.16511       -0.65259        1.62455
H         -4.92244        0.19422        1.37936
H         -3.50321        0.99843        1.02403
H         -3.49792       -2.58102       -1.22968
H         -3.49500       -0.97367       -0.71017
C         -3.37926       -2.25334        0.85776
C         -3.22111       -0.94403        1.64072
N         -3.09976       -1.92469       -0.56402
N         -3.99728        0.09332        0.97911
