33
1sa1msa1a1tma_02.log	Energy: -1001168.8089960
S         -1.43357       -1.54653       -0.21484
O         -0.65361       -1.13569       -1.56174
O         -0.89077       -0.61769        0.83371
O         -2.83524       -1.31765       -0.53223
O         -1.04761       -2.93606        0.11587
H          0.40571       -2.80818        1.01745
S          2.25820        0.50493       -0.10032
O          2.32343        0.32242        1.36397
O          1.37778        1.59211       -0.56209
O          1.94912       -0.80742       -0.79011
H          0.30900       -1.00723       -1.36464
C          3.90520        0.92344       -0.64826
H          4.18598        1.86250       -0.17051
H          4.58498        0.12464       -0.35161
H          3.88633        1.03337       -1.73263
N          1.31561       -2.38736        1.32890
H          1.91451       -3.03936        1.82459
H          1.12099       -1.55375        1.89207
H          1.77223       -1.99522        0.47306
N         -1.72499        1.85001        0.27377
C         -1.68891        2.01282       -1.20401
H         -0.64500        2.01151       -1.51592
H         -2.20788        1.16647       -1.65481
H         -2.18130        2.95277       -1.46554
C         -3.11528        1.70840        0.77253
H         -3.56227        0.83446        0.29602
H         -3.08497        1.55448        1.85164
H         -3.67460        2.61689        0.53685
C         -0.98014        2.92613        0.97021
H         -0.99112        2.72095        2.04141
H          0.04662        2.91582        0.60423
H         -1.46588        3.88408        0.76826
H         -1.25169        0.92800        0.49204
