30
1sa1msa2ma_140.log	Energy: -976477.6833650
S         -1.53262       -0.17545       -0.69334
O         -0.36677       -0.06639       -1.58168
O         -2.72759       -0.78688       -1.31197
O         -1.15773       -1.21836        0.46802
O         -1.87242        1.10311       -0.01256
H         -0.24072       -1.03814        0.79890
H         -3.56967        1.03289        0.38580
S          2.53029       -0.98005        0.26756
O          3.11592       -2.29471        0.42246
O          1.37122       -0.62761        1.10730
O          2.12995       -0.76297       -1.24913
H          1.17105       -0.48958       -1.35508
C          3.77737        0.25593        0.50017
H          4.14821        0.13844        1.51959
H          4.57240        0.05132       -0.21770
H          3.34118        1.25134        0.34494
N         -4.41243        0.40746        0.35142
H         -5.26373        0.93066        0.16429
C         -4.48498       -0.42261        1.57878
H         -5.28122       -1.15879        1.47436
H         -3.52501       -0.92835        1.68886
H         -4.67002        0.21754        2.44070
H         -4.13268       -0.18413       -0.46804
N          2.32190        3.21645        0.18134
H          2.44569        3.76138        1.02817
C          0.94754        2.71317        0.08358
H          0.17167        3.48847        0.13601
H          0.82153        2.17661       -0.85920
H          0.76598        1.99203        0.88388
H          2.53616        3.83068       -0.59694
