39
1sa1msa1dma1tma_119.log	Energy: -1050465.8297256
S         -0.85633       -0.71704       -0.67501
O          0.31480       -0.28736       -1.46744
O         -1.89245       -1.45253       -1.39416
O         -0.32641       -1.74674        0.42659
O         -1.42813        0.44657        0.07941
H          0.53439       -1.42783        0.80096
H         -2.92635        0.19281        0.28216
S          3.26120       -0.83923        0.34931
O          4.25642       -1.84522        0.64650
O          2.05057       -0.76928        1.18725
O          2.81193       -1.03201       -1.15734
H          1.86254       -0.74703       -1.30120
C          4.00804        0.76822        0.35207
H          4.35389        0.95478        1.36986
H          4.84993        0.73855       -0.34009
H          3.24618        1.49809        0.04428
N          1.28775        2.44210       -0.24563
C          0.98592        3.63897       -1.01049
C          0.90610        2.55467        1.15264
H          0.80360        1.64925       -0.65855
H          1.60549        4.47116       -0.65641
H          1.21736        3.47084       -2.06564
H         -0.07128        3.95064       -0.93247
H          1.51069        3.33173        1.63624
H         -0.15789        2.81060        1.29320
H          1.09706        1.60409        1.65735
N         -3.97326       -0.01277        0.42941
C         -4.05786       -1.39074        0.97589
H         -3.60554       -2.07059        0.25349
H         -3.49461       -1.43144        1.90873
H         -5.10565       -1.64464        1.15379
C         -4.48183        0.99756        1.38274
H         -3.92580        0.91362        2.31692
H         -4.32868        1.99065        0.95917
H         -5.54596        0.82851        1.56420
C         -4.62428        0.08973       -0.89955
H         -4.48276        1.10138       -1.28145
H         -4.13614       -0.61932       -1.56817
H         -5.69017       -0.12878       -0.79797
