35
1sa1msa1ma1eda_114.log	Energy: -1035888.1999722
S         -1.53055       -0.54112        0.88787
O         -2.55715       -1.46267        1.36039
O         -0.12622       -0.92127        1.24239
O         -1.54041       -0.58594       -0.70990
O         -1.73695        0.87883        1.26787
H         -2.41731       -1.02149       -1.03332
H         -0.14096        1.55097        1.27676
S          2.80333       -0.93268       -0.30663
O          2.89156        0.03965        0.79615
O          2.61746       -0.37859       -1.63959
O          1.72769       -2.01670        0.02186
H          0.88691       -1.60806        0.48898
C          4.26963       -1.93331       -0.28776
H          4.38355       -2.36426        0.70620
H          4.15841       -2.71010       -1.04410
H          5.10648       -1.27768       -0.52979
N         -3.84717       -1.69967       -1.27799
H         -3.99446       -2.21400       -2.14000
C         -4.90106       -0.70120       -1.05952
H         -5.90809       -1.13307       -1.03150
H         -4.70825       -0.20180       -0.10763
H         -4.85958        0.04715       -1.85445
H         -3.83275       -2.36418       -0.50758
H          1.59498        2.23817       -1.00744
H          0.19285        1.15452       -0.98773
H         -0.46028        3.40110       -1.88291
H         -1.30285        3.01418       -0.37566
H          0.92420        4.89745       -0.65824
H         -0.51155        5.11067        0.09557
H          1.51237        1.20774        1.09008
H          0.98518        2.81541        1.29469
C          0.60507        2.07638       -0.57451
C         -0.32571        3.25811       -0.80356
N          0.76912        1.89893        0.89243
N          0.21108        4.43100       -0.10771
