24
1sa1msa2a_31.log	Energy: -927173.4019932
S         -1.83275        0.35463        0.34701
O         -0.50060        0.18055        1.00278
O         -2.98209        0.18876        1.22605
O         -1.82315        1.64845       -0.39794
O         -1.87181       -0.80476       -0.74195
H         -0.37199        2.13804       -0.56041
H         -2.82481       -1.14805       -0.83222
S          2.50262       -0.35272       -0.02820
O          2.75525        0.76813        0.87773
O          2.14668        0.03153       -1.40161
O          1.43877       -1.33010        0.56842
H          0.55779       -0.81478        0.75120
C          3.90949       -1.42903       -0.07181
H          4.73463       -0.85698       -0.49637
H          4.13279       -1.73723        0.94907
H          3.66568       -2.28525       -0.70016
N         -4.42384       -1.58516       -0.69526
H         -4.59215       -1.13628        0.20360
H         -4.62384       -2.57544       -0.60715
H         -5.06224       -1.18841       -1.37620
N          0.68268        2.36644       -0.61862
H          0.84808        3.30869       -0.95979
H          1.14667        1.66873       -1.22161
H          1.09841        2.24120        0.30920
