35
1sa1msa1ma1eda_47.log	Energy: -1035901.4954859
S          1.62069       -1.30891       -0.84660
O          0.69326       -0.60013       -1.96749
O          1.72236       -2.72570       -1.14305
O          2.85713       -0.50609       -0.91821
O          0.90760       -1.02455        0.44846
H          2.17561        1.07794       -0.61589
H         -0.40300       -1.77761        0.86289
S         -2.16240        0.73518       -0.34416
O         -1.13394        1.79126       -0.51559
O         -2.45362        0.41198        1.07563
O         -1.86329       -0.49657       -1.13509
H         -0.26486       -0.66188       -1.72303
C         -3.66454        1.40900       -1.02643
H         -3.48648        1.63777       -2.07721
H         -4.45001        0.66043       -0.92251
H         -3.91454        2.31193       -0.46916
N         -1.36054       -2.12275        1.17451
H         -1.88883       -1.24718        1.37128
C         -1.27331       -3.05213        2.31609
H         -2.27169       -3.36988        2.61791
H         -0.67614       -3.91758        2.02912
H         -0.78602       -2.53793        3.14400
H         -1.79809       -2.53293        0.35025
H          0.38090        2.04242        1.78136
H          1.58496        3.04688        2.57834
H          1.30703        3.79899        0.29279
H          2.93938        3.10887        0.46602
H          0.58120        1.67539       -0.63276
H          1.76805        2.37550       -1.55143
H          1.88081        0.25085        1.69343
H          3.16099        1.17032        2.21308
C          1.45261        2.26454        1.82140
C          1.86966        2.88035        0.47990
N          2.15325        1.06875        2.23295
N          1.59095        1.94758       -0.64451
