38
1sa1msa1dma1eda_149.log	Energy: -1060550.9536787
S         -2.41168       -0.57697       -0.32746
O         -2.02502       -0.36283        1.07707
O         -2.14225        0.60315       -1.18976
O         -1.93630       -1.83394       -0.91314
O         -4.02737       -0.66570       -0.24187
H         -4.37240       -0.77479       -1.13878
S          0.55447        2.39897        0.18513
O          1.44272        3.52595       -0.00403
O          1.08687        1.20232        0.84269
O          0.00051        2.00314       -1.24633
H         -0.82700        1.41881       -1.20009
C         -0.90529        2.89161        1.07441
H         -0.57175        3.23458        2.05468
H         -1.38382        3.70222        0.52511
H         -1.56037        2.02275        1.16897
N          0.46683       -1.64180        1.37017
C          1.35708       -1.34197        2.50908
C          0.19493       -3.08371        1.19218
H         -0.43357       -1.13813        1.46427
H          2.33262       -1.78734        2.31205
H          1.46022       -0.26157        2.59107
H          0.91909       -1.75277        3.42123
H          1.13763       -3.59269        0.98357
H         -0.25102       -3.48694        2.10306
H         -0.50033       -3.19832        0.36021
H          0.85254       -1.28651        0.44421
H          3.46233        0.04372       -1.88119
H          4.37751       -1.44489       -1.63058
H          2.30572       -1.84839       -2.89345
H          2.34075       -2.74601       -1.36333
H          0.95349       -0.16734       -1.64010
H          0.19695       -1.61262       -1.68572
H          4.37394       -0.45063        0.43190
H          2.81291        0.00366        0.36638
C          3.46373       -0.91684       -1.34022
C          2.26836       -1.74295       -1.79956
N          3.45701       -0.74421        0.11301
N          1.02243       -1.13435       -1.33014
