36
1sa1msa2dma_86.log	Energy: -1025814.1629129
S          1.20274        0.67855       -0.60006
O          2.19547        0.30654       -1.60021
O          1.36084        2.00258        0.01691
O         -0.22592        0.54177       -1.09355
O          1.25781       -0.41358        0.56476
H          2.24867       -0.72772        0.70597
S         -2.66659       -1.47781        0.00454
O         -3.76485       -2.39739       -0.19381
O         -2.96545       -0.10143        0.41965
O         -1.82166       -1.45133       -1.32868
H         -1.12016       -0.72201       -1.29651
C         -1.52015       -2.15032        1.18832
H         -0.62250       -1.52629        1.19580
H         -2.01855       -2.15118        2.15859
H         -1.28279       -3.16824        0.87861
N         -1.70970        2.32566        0.22702
C         -1.33438        2.29315        1.66009
C         -1.50470        3.63744       -0.42242
H         -1.12839        1.60647       -0.28928
H         -1.92254        3.03332        2.20573
H         -1.54564        1.29295        2.03596
H         -0.26746        2.50459        1.73103
H         -2.09374        4.40056        0.08927
H         -0.44005        3.86790       -0.36863
H         -1.80804        3.56310       -1.46672
H         -2.66651        1.98019        0.12511
N          3.72938       -1.16761        0.83908
C          4.55484        0.04540        0.78259
C          4.01922       -2.09767       -0.25874
H          3.88303       -1.63495        1.72816
H          4.34793        0.55999       -0.15847
H          4.27901        0.71115        1.60336
H          5.62813       -0.18016        0.84079
H          3.72800       -1.61981       -1.19690
H          5.08286       -2.36856       -0.30269
H          3.42365       -3.00474       -0.13299
