36
1sa1msa1ma1tma_116.log	Energy: -1025798.3102918
S          1.89250       -0.71497        0.12957
O          3.19397       -1.22341        0.61635
O          0.87410       -0.57113        1.18435
O          2.06732        0.53348       -0.66397
O          1.39317       -1.84789       -0.86942
H          3.73879        0.82164       -0.91394
H          0.42682       -1.72859       -1.05617
S         -2.24517       -1.62830       -0.09184
O         -2.73895       -2.97582        0.09941
O         -1.23264       -1.39837       -1.13627
O         -1.68130       -1.05924        1.27795
H         -0.69086       -0.90048        1.23126
C         -3.59855       -0.52688       -0.38730
H         -4.05699       -0.84179       -1.32579
H         -4.30324       -0.64182        0.43707
H         -3.20632        0.49785       -0.44448
N          4.70509        0.58321       -0.57334
H          4.46604       -0.31685       -0.08488
C          5.19688        1.59386        0.38914
H          6.13811        1.25865        0.82366
H          5.33321        2.54884       -0.11740
H          4.44587        1.69571        1.17196
H          5.34145        0.42243       -1.34991
N         -2.23609        2.41961       -0.08847
C         -0.82761        2.19218       -0.37458
H         -0.46203        1.33026        0.18516
H         -0.68800        1.98470       -1.43867
H         -0.20084        3.06293       -0.10270
C         -2.74839        3.56097       -0.82326
H         -2.60227        3.40524       -1.89632
H         -3.82049        3.67793       -0.63613
H         -2.24438        4.50575       -0.54114
C         -2.46607        2.55748        1.33973
H         -3.53633        2.68433        1.53238
H         -2.12818        1.65328        1.85379
H         -1.93351        3.42604        1.77163
