38
1sa1msa1dma1eda_264.log	Energy: -1060545.6257154
S          0.40475        2.01312        0.09029
O         -0.90128        2.11139        0.80067
O          1.54092        2.18947        0.99640
O          0.47741        0.85749       -0.80888
O          0.43636        3.27025       -0.94395
H          0.47300        4.08276       -0.42136
S         -2.97561       -0.49561       -0.14118
O         -2.74330       -1.03458        1.19907
O         -2.09780       -1.00460       -1.19292
O         -2.99530        1.06892       -0.12081
H         -2.11526        1.48478        0.23250
C         -4.66445       -0.78553       -0.60815
H         -4.79309       -1.86579       -0.68043
H         -5.31296       -0.36827        0.16145
H         -4.83987       -0.31062       -1.57300
N          0.51804       -1.74000        0.23225
C          0.58590       -1.22402        1.62179
C         -0.22856       -3.00950        0.11162
H          0.10483       -1.00465       -0.36333
H          0.98934       -2.00902        2.26459
H          1.24743       -0.35754        1.64126
H         -0.41930       -0.94957        1.94418
H          0.34446       -3.79634        0.60720
H         -1.20403       -2.89326        0.58278
H         -0.35963       -3.24298       -0.94413
H          1.51100       -1.90114       -0.08947
H          5.11709       -1.61699       -0.97230
H          3.75069       -1.65966       -2.10052
H          4.33367        0.66850       -1.40510
H          2.67721        0.23141       -0.99009
H          4.87678        0.55220        0.87811
H          3.31190        1.04872        0.97176
H          3.53686       -3.26581       -0.25783
H          3.51804       -1.99560        0.79056
C          4.03600       -1.43517       -1.06786
C          3.72506        0.02682       -0.75238
N          3.26634       -2.29311       -0.15318
N          3.91932        0.28833        0.67387
