36
1sa1msa1ma1tma_64.log	Energy: -1025811.1916932
S         -1.82705       -1.57621        0.04118
O         -0.40625       -1.46347       -0.38681
O         -2.02690       -1.34956        1.47623
O         -2.73235       -0.82102       -0.83131
O         -2.11518       -3.15524       -0.22718
H         -3.00766       -3.35214        0.08818
S          2.70418       -0.39605        0.01180
O          3.99915       -0.35936        0.65612
O          2.09588        0.86562       -0.41708
O          1.71074       -1.13946        0.99636
H          0.81620       -1.30695        0.54131
C          2.75219       -1.48650       -1.39600
H          3.39628       -1.02209       -2.14355
H          3.16701       -2.43977       -1.06877
H          1.73442       -1.61154       -1.76996
N         -0.40606        1.14267        1.69894
H         -1.05107        0.37296        1.89089
C         -0.56459        2.20983        2.69085
H         -0.44706        1.86224        3.72387
H          0.17784        2.99289        2.51128
H         -1.55967        2.65483        2.59618
H          0.52608        0.74175        1.76373
N         -0.84034        2.09222       -0.84331
C         -2.28651        2.39979       -0.72907
H         -2.83281        1.45473       -0.71869
H         -2.45665        2.94102        0.20305
H         -2.59515        3.01500       -1.57795
C          0.00018        3.31046       -0.79419
H         -0.22120        3.85433        0.12541
H          1.04680        3.00434       -0.79673
H         -0.22102        3.94034       -1.65932
C         -0.55493        1.28804       -2.05880
H          0.49798        1.01261       -2.04019
H         -1.17873        0.39546       -2.03924
H         -0.78351        1.89787       -2.93761
H         -0.59611        1.55428        0.06366
