36
1sa1msa1ma1tma_118.log	Energy: -1025799.2251002
S          1.63922       -0.94850        0.13168
O          0.67009       -0.71272        1.21619
O          2.90162       -1.58010        0.57280
O          1.00416       -2.01545       -0.86105
O          1.90522        0.28879       -0.65676
H          0.05999       -1.77319       -1.04695
H          3.58683        0.43654       -0.93978
S         -2.56679       -1.34357       -0.06695
O         -3.44370       -2.49242       -0.12519
O         -1.52397       -1.19458       -1.09668
O         -1.86989       -1.31761        1.35486
H         -0.90100       -1.06798        1.29397
C         -3.52847        0.14386       -0.06026
H         -4.05001        0.18585       -1.01773
H         -4.24298        0.07016        0.76015
H         -2.84636        0.99774        0.06340
N          4.53746        0.12397       -0.61476
H          4.24366       -0.76513       -0.13935
C          5.10370        1.08317        0.36008
H          6.02498        0.67990        0.77917
H          5.29627        2.03572       -0.13244
H          4.36751        1.21985        1.15164
H          5.15473       -0.06525       -1.40029
N         -1.42203        2.62152        0.02794
C         -0.78752        2.38475       -1.25929
H         -0.21644        1.45481       -1.22772
H         -1.55265        2.30021       -2.03796
H         -0.09734        3.20407       -1.53916
C         -2.19312        3.85032        0.02000
H         -2.95728        3.80540       -0.76282
H         -2.69584        3.98166        0.98318
H         -1.56512        4.74328       -0.16577
C         -0.45029        2.60578        1.10928
H         -0.96295        2.73161        2.06802
H          0.07505        1.64835        1.12143
H          0.29790        3.41649        1.00879
