32
1sa1msa1a1eda_112.log	Energy: -1011233.8263346
S         -3.10028       -0.40054        0.12219
O         -2.94166       -1.54683        1.01831
O         -3.32804        0.89773        0.75609
O         -2.00475       -0.32873       -0.90306
O         -4.38830       -0.71272       -0.82069
H         -5.15257       -0.85435       -0.24538
S          2.77538       -0.78591       -0.16202
O          3.02240        0.44872       -0.92297
O          2.32161       -1.94476       -0.96713
O          1.83718       -0.54656        0.99711
C          4.32970       -1.26165        0.57664
H          5.04354       -1.43472       -0.22914
H          4.66821       -0.44935        1.22017
H          4.17451       -2.17309        1.15400
N         -0.19321       -2.14505        0.15215
H          0.41348       -1.53127        0.74330
H         -0.81272       -1.53400       -0.41702
H          0.47997       -2.63606       -0.44700
H         -0.79103       -2.75267        0.70796
H          0.87547        1.37129       -1.26839
H          0.35909        2.94558       -1.90679
H          2.38538        2.91605       -0.29339
H          1.09921        4.06007        0.16445
H          1.52043        1.39799        1.34743
H          1.42843        2.86421        2.11626
H         -1.34119        1.22890       -0.72367
H         -0.69026        2.01368        0.62354
C          0.45660        2.34348       -1.00306
C          1.35086        2.99876        0.05588
N         -0.88412        2.11066       -0.39722
N          1.09286        2.32782        1.32682
H         -1.54065        2.87856       -0.51946
