32
1sa1msa1a1eda_281.log	Energy: -1011224.4005462
S         -2.07330       -1.08433       -0.02594
O         -2.25436       -0.29212       -1.26796
O         -0.87571       -1.95541       -0.10181
O         -2.19878       -0.30406        1.19910
O         -3.32435       -2.10739        0.02457
H         -3.22063       -2.74830       -0.69227
S          2.46891       -0.69941       -0.40018
O          1.66835        0.06139       -1.36573
O          3.44002       -1.64061       -0.91813
O          1.50424       -1.40589        0.63452
H          0.57381       -1.60245        0.27545
C          3.28104        0.44357        0.69067
H          4.03187        0.96722        0.09785
H          2.53035        1.13452        1.07491
H          3.75565       -0.12446        1.49084
N          0.24609        0.40288        2.86977
H         -0.66039        0.08177        2.52731
H          0.19043        0.46653        3.88067
H          0.90671       -0.33475        2.64046
H         -0.54251        3.78388       -1.46451
H         -2.14240        2.99806       -1.45418
H         -1.48524        3.70852        0.84999
H         -1.62855        1.95188        0.74144
H          0.82982        3.45921        1.02299
H          0.40239        1.97496        1.63914
H         -0.28432        1.78213       -2.67787
H          0.37353        1.46327       -1.19060
C         -1.11026        2.92092       -1.10599
C         -1.02936        2.80909        0.41609
N         -0.50536        1.69716       -1.68843
N          0.35472        2.58816        0.81603
H         -1.15225        0.87183       -1.56636
