32
1sa1msa1a1eda_171.log	Energy: -1011229.8316281
S          0.50370        2.21270       -0.10326
O         -0.81157        2.75408        0.23239
O          1.30661        1.78752        1.05182
O          0.42068        1.17168       -1.17369
O          1.34997        3.37237       -0.86042
H          1.49029        4.09748       -0.23623
S          1.81208       -1.83867       -0.13704
O          2.31975       -3.14358       -0.50341
O          0.44804       -1.73177        0.39126
O          1.94315       -0.90892       -1.40988
H          1.40142       -0.06528       -1.30815
C          2.91127       -1.07250        1.03239
H          2.88169       -1.66906        1.94532
H          3.91264       -1.07963        0.60209
H          2.55876       -0.05310        1.20960
N         -0.91639       -0.01774        2.34039
H         -1.37054        0.09623        3.23972
H         -0.21046        0.71359        2.24279
H         -0.41867       -0.90418        2.32331
H         -2.59000       -1.30918       -1.73621
H         -1.76692       -2.04058       -0.34485
H         -4.22791       -2.52406       -0.28407
H         -3.74074       -1.53053        1.09184
H         -5.15822       -0.55943       -1.27904
H         -5.53226       -0.34460        0.29912
H         -1.16505        0.33014       -0.77031
H         -2.73469        0.73311       -0.35559
C         -2.50525       -1.29617       -0.64561
C         -3.86368       -1.52892        0.00375
N         -1.99893        0.03150       -0.23697
N         -4.76311       -0.43306       -0.35332
H         -1.69972        0.03422        0.78701
