38
1sa1msa1dma1eda_226.log	Energy: -1060546.8170421
S          1.00149       -0.14542        0.28270
O          1.24039       -1.16035       -0.73781
O          1.31404        1.24024       -0.11071
O         -0.42507       -0.17367        0.81771
O          1.84467       -0.50791        1.56561
H          2.80535       -0.80496        1.29888
S         -3.48346       -0.78271       -0.20105
O         -3.18562       -0.48571       -1.59634
O         -3.74892        0.38249        0.65751
O         -2.38264       -1.69283        0.44150
H         -1.49715       -1.17296        0.57393
C         -4.86655       -1.88917       -0.10379
H         -5.71751       -1.37176       -0.54733
H         -4.62280       -2.78876       -0.66835
H         -5.05202       -2.11788        0.94505
N         -1.58068        2.16322        0.17999
C         -1.43026        2.38007       -1.27894
C         -1.06182        3.26242        1.01830
H         -2.55851        1.93490        0.40150
H         -0.36455        2.45316       -1.49586
H         -1.86006        1.52008       -1.79451
H         -1.95535        3.29422       -1.56237
H          0.00879        3.34925        0.83011
H         -1.57617        4.19180        0.76711
H         -1.22837        3.01329        2.06639
H         -1.06584        1.27933        0.43907
H          5.38636       -1.96399       -0.75119
H          3.61436       -1.92405       -0.95553
H          4.66710       -0.08157       -2.19535
H          3.62592        0.52999       -0.90830
H          6.55029        0.51969       -0.88863
H          5.51646        1.73605       -0.52985
H          4.41106       -2.19716        1.39070
H          4.95907       -0.64560        1.29946
C          4.46896       -1.40413       -0.51618
C          4.56194       -0.00090       -1.10458
N          4.26477       -1.30013        0.93832
N          5.65545        0.73536       -0.46258
