36
1sa1msa2dma_87.log	Energy: -1025813.1265371
S         -1.58022        1.63076       -0.10400
O         -1.00141        1.60006       -1.44339
O         -2.85410        0.92933        0.05563
O         -0.61389        1.23325        0.97798
O         -1.82549        3.19682        0.26337
H         -2.17044        3.63096       -0.52850
S          2.52218        0.24014        0.06917
O          2.05583        0.04454       -1.29768
O          2.37024       -0.89251        0.98315
O          1.90056        1.53925        0.70278
H          0.88346        1.46869        0.78667
C          4.22580        0.74038        0.04477
H          4.79068       -0.08960       -0.38035
H          4.31307        1.62928       -0.57918
H          4.54109        0.94129        1.06807
N         -1.20683       -1.51211        1.29083
C         -2.62957       -1.87117        1.45109
C         -0.28022       -2.32419        2.10347
H         -0.92925       -1.57927        0.22659
H         -2.91909       -1.77302        2.49955
H         -3.22367       -1.19196        0.84029
H         -2.77080       -2.90507        1.12863
H         -0.51167       -2.19831        3.16352
H         -0.39711       -3.37469        1.82874
H          0.73923       -1.99537        1.89920
H         -1.06908       -0.50741        1.48870
N         -0.52705       -1.59733       -1.33157
C         -1.72965       -1.63113       -2.16603
C          0.38639       -2.70947       -1.59242
H         -0.02880       -0.72167       -1.50209
H         -2.30715       -2.53285       -1.93304
H         -2.33998       -0.75243       -1.95001
H         -1.49040       -1.64383       -3.23815
H         -0.10714       -3.65364       -1.33530
H          0.69325       -2.75885       -2.64610
H          1.27909       -2.59306       -0.97461
