36
1sa1msa2dma_44.log	Energy: -1025819.7481049
S         -0.04694        2.30507        0.26769
O         -0.48449        1.20923        1.12505
O         -0.04084        1.75766       -1.22769
O         -0.77120        3.54499        0.26175
O          1.46458        2.61607        0.55927
H          1.99581        1.76158        0.56271
S          2.11583       -0.88675       -0.17862
O          1.58693       -1.79714        0.86308
O          2.74168        0.34635        0.35779
O          1.08086       -0.58750       -1.22041
H          0.43887        0.86957       -1.26897
C          3.41889       -1.76624       -1.01300
H          4.18292       -2.01009       -0.27491
H          2.99651       -2.67208       -1.44778
H          3.82242       -1.11411       -1.78741
N         -1.15376       -1.62776        1.11459
C         -1.35774       -3.03833        0.73602
C         -1.77313       -1.25031        2.39990
H         -0.12854       -1.46127        1.13898
H         -2.42632       -3.22866        0.61457
H         -0.83828       -3.21916       -0.20499
H         -0.94746       -3.69230        1.50704
H         -2.85051       -1.41852        2.33853
H         -1.35055       -1.85891        3.20147
H         -1.56893       -0.19591        2.57902
H         -1.55766       -1.02248        0.32692
N         -2.36644       -0.32277       -1.00956
C         -3.75364        0.01745       -0.70477
C         -2.22122       -1.15808       -2.20026
H         -1.83735        0.53460       -1.15113
H         -4.30327       -0.89200       -0.43696
H         -3.77848        0.70344        0.14550
H         -4.27156        0.49026       -1.55166
H         -2.71363       -2.12251       -2.03271
H         -2.66633       -0.70103       -3.09573
H         -1.15781       -1.33412       -2.38095
