32
1sa1msa1a1eda_70.log	Energy: -1011237.5653497
S          2.42129       -0.71246       -0.20179
O          2.15741       -2.09394       -0.65667
O          2.30207        0.29131       -1.27540
O          1.69378       -0.36797        1.02889
O          3.97762       -0.67363        0.26542
H          4.53105       -0.75197       -0.52335
S         -2.54074       -0.52756       -0.08109
O         -2.20553        0.44900       -1.15655
O         -1.85846       -0.22718        1.19594
O         -2.33442       -1.94242       -0.50650
C         -4.29548       -0.35045        0.18122
H         -4.49019        0.67402        0.49897
H         -4.80260       -0.56612       -0.75922
H         -4.59722       -1.05785        0.95361
N         -0.09473       -2.61591        0.84318
H         -0.14070       -3.40234        1.48334
H         -0.97686       -2.52541        0.27461
H          0.00330       -1.73385        1.36187
H          0.74225       -2.67300        0.22471
H          0.28825        3.92369       -0.78368
H         -1.38508        3.28956       -0.68941
H         -0.51111        3.60094        1.56772
H         -0.68422        1.87078        1.26338
H          1.63922        3.15187        2.03526
H          1.56707        1.62450        1.41719
H          0.09587        2.14000       -2.30388
H          0.96795        1.49197       -1.06484
C         -0.33310        3.07801       -0.48153
C         -0.10285        2.76247        0.99382
N          0.04475        1.90297       -1.31494
N          1.32128        2.59724        1.25290
H         -0.70617        1.17201       -1.22030
