33
1sa1msa1a1tma_15.log	Energy: -1001163.1518727
S          2.36632       -0.78073        0.25305
O          2.50743        0.23692        1.29613
O          1.96017       -2.11407        0.71825
O          1.58206       -0.31071       -0.92227
O          3.84765       -0.96638       -0.41312
H          4.44260       -1.28997        0.27672
S         -2.63750       -0.39514        0.02388
O         -2.71577       -1.64225       -0.80292
O         -3.29845        0.77115       -0.58038
O         -1.22841       -0.13386        0.42861
C         -3.53253       -0.77442        1.52362
H         -4.56346       -1.00433        1.25324
H         -3.05904       -1.63083        2.00408
H         -3.49656        0.09964        2.17484
N         -0.18856       -2.44464       -1.07997
H          0.23062       -2.70801       -0.17999
H         -1.22132       -2.21215       -0.98265
H          0.33160       -1.58149       -1.32405
H         -0.02449       -3.17263       -1.76848
N          0.38295        2.16422       -0.18638
C          1.71389        2.70661       -0.56272
H          2.45551        2.30451        0.12664
H          1.94768        2.38295       -1.57627
H          1.67310        3.79651       -0.50565
C         -0.68702        2.65726       -1.09218
H         -0.40853        2.41716       -2.11905
H         -1.62831        2.16291       -0.84322
H         -0.77073        3.73982       -0.97314
C          0.07166        2.43539        1.24209
H         -0.89880        1.99512        1.46047
H          0.83923        1.95232        1.84707
H          0.06567        3.51656        1.39774
H          0.43001        1.13328       -0.29413
