41
1sa1msa1tma1eda_212.log	Energy: -1085200.5432217
S         -2.36299       -0.66243       -0.69591
O         -1.72085       -1.99764       -0.59671
O         -3.35540       -0.42102        0.35181
O         -1.38893        0.42601       -0.87899
O         -3.15471       -0.66084       -2.11480
H         -3.83572       -1.34651       -2.07951
S          1.55500       -1.82400        0.53895
O          1.33486       -2.80195        1.58910
O          1.27418       -0.42055        0.87621
O          0.80785       -2.20764       -0.78841
H         -0.21041       -2.12135       -0.71204
C          3.22685       -1.92458       -0.05100
H          3.87429       -1.66735        0.78785
H          3.41165       -2.94475       -0.38614
H          3.35385       -1.20976       -0.86398
H          3.18552        2.66109       -2.21112
H          3.38313        0.92205       -2.21150
H          1.20704        1.41602       -3.09396
H          1.01901        0.59524       -1.54596
H          0.64516        3.45935       -1.96746
H         -0.45963        2.32541       -1.56003
H          2.92493        2.68152        0.07490
H          2.71373        1.07650        0.19384
C          2.83454        1.74079       -1.72707
C          1.34668        1.53071       -2.00741
N          3.21979        1.79513       -0.31951
N          0.51284        2.59937       -1.44146
N         -0.77005        1.53997        1.59512
C          0.46667        2.28638        1.93718
H          1.24673        1.56573        2.17580
H          0.74956        2.86499        1.05519
H          0.25959        2.92985        2.79523
C         -1.90306        2.46293        1.32445
H         -1.59794        3.15711        0.54170
H         -2.75719        1.87193        0.99335
H         -2.13781        3.00470        2.24322
C         -1.12641        0.53009        2.62943
H         -2.03582        0.01898        2.31032
H         -0.30496       -0.18079        2.70794
H         -1.28699        1.04700        3.57804
H         -0.60550        1.02568        0.70735
