40
1sa1msa2eda_81.log	Energy: -1095297.0164993
S          1.42348       -1.72090       -0.62966
O          1.41768       -0.37492       -1.53897
O          2.83121       -2.04622       -0.50315
O          0.76516       -1.28942        0.64831
O          0.57698       -2.71478       -1.32495
H          1.00761        0.28432        1.08613
H         -1.10568       -2.50210       -0.94862
S         -1.34648        1.81209       -0.56301
O         -0.14684        2.65589       -0.70712
O         -1.75762        1.59905        0.84619
O         -1.19547        0.50411       -1.29436
H          0.49985       -0.01403       -1.58747
C         -2.68934        2.65128       -1.38186
H         -2.41041        2.80031       -2.42496
H         -3.58177        2.02904       -1.30632
H         -2.84081        3.60874       -0.88298
H         -2.72722       -3.34195        0.92749
H         -1.06855       -2.78196        1.27575
H         -2.78893       -1.71047        2.78859
H         -1.81638       -0.57213        1.84866
H         -4.63373       -0.97254        1.61931
H         -3.67096        0.28049        1.14170
H         -2.77669       -2.12927       -0.99558
H         -1.66809       -1.00763       -0.54868
C         -2.05696       -2.47856        0.92907
C         -2.59703       -1.33397        1.77635
N         -1.90658       -2.02201       -0.48052
N         -3.77095       -0.72922        1.14985
H          2.70042        2.40108        2.32641
H          2.49534        0.73520        2.94041
H          4.58912        1.07062        1.52695
H          3.52658       -0.20104        0.92337
H          4.33595        2.02258       -0.50535
H          3.11980        0.99693       -0.93093
H          0.43200        1.63651        1.89277
H          1.24902        1.84139        0.48473
C          2.53529        1.35868        2.04401
C          3.61435        0.88194        1.06709
N          1.22469        1.28153        1.35579
N          3.47212        1.60127       -0.19430
