40
1sa1msa2eda_17.log	Energy: -1095297.2214941
S          2.50824        1.13130       -0.33397
O          2.07018        0.28114       -1.46221
O          2.44585        2.56488       -0.59120
O          1.88949        0.69378        0.94263
O          4.07909        0.76258       -0.07665
H          4.60590        1.24715       -0.72639
S         -2.69761       -1.20272       -0.23389
O         -2.01082       -2.06331       -1.23453
O         -3.33384        0.00111       -0.78558
O         -1.76890       -0.88202        0.90689
C         -3.98854       -2.21123        0.47327
H         -4.67211       -2.49045       -0.32887
H         -3.53244       -3.09636        0.91650
H         -4.50601       -1.62221        1.23070
H          1.01882       -3.88787       -0.03990
H          1.86294       -3.24188       -1.47158
H          3.36913       -3.57118        0.54824
H          3.36533       -1.91650       -0.05989
H          2.75902       -2.65656        2.51267
H          2.37186       -1.20431        1.83248
H         -0.29548       -2.07955       -0.93406
H          0.37406       -1.63162        0.49745
C          1.55733       -3.02829       -0.44495
C          2.75198       -2.67392        0.44284
N          0.61755       -1.88579       -0.46826
N          2.27665       -2.21224        1.74401
H          1.06679       -1.05571       -0.90737
H         -0.07935        2.94124       -0.46475
H         -0.91359        1.49679       -1.07436
H         -2.37409        3.53633       -1.24278
H         -3.06079        2.27211       -0.21780
H         -1.80140        4.75276        0.72673
H         -3.25074        4.11770        1.14210
H          0.26050        1.37601        1.17626
H         -1.07725        2.27833        1.72921
C         -0.92534        2.26829       -0.30321
C         -2.25648        3.00923       -0.28815
N         -0.73670        1.61677        1.02202
N         -2.29907        3.88324        0.88780
H         -1.27231        0.71491        1.06865
