33
1sa1msa1ma1dma_54.log	Energy: -1001154.5465906
S         -1.57283        0.09158        0.59398
O         -0.22268       -0.02552        1.23694
O         -2.68776        0.14363        1.53330
O         -1.54785        1.23413       -0.36435
O         -1.70080       -1.23818       -0.25564
H         -0.04168        1.84009       -0.37229
H         -2.70179       -1.45911       -0.36601
S          2.60182       -1.06892       -0.21784
O          2.86900        0.33372        0.15906
O          2.22929       -1.29874       -1.60252
O          1.57771       -1.69366        0.78383
H          0.76911       -1.06353        0.95810
C          4.03850       -2.03029        0.18517
H          4.28613       -1.86135        1.23230
H          3.80641       -3.07859       -0.00182
H          4.84170       -1.69135       -0.46952
N         -4.30712       -1.53723       -0.35740
H         -4.74579       -2.43419       -0.53645
C         -4.84551       -0.48995       -1.23514
H         -5.92479       -0.33869       -1.11759
H         -4.33212        0.44795       -1.01148
H         -4.63537       -0.74923       -2.27523
H         -4.46677       -1.29448        0.61795
N          0.91196        2.27930       -0.24285
C          0.87176        3.06977        1.00558
C          1.27843        3.04291       -1.45024
H          1.58495        1.50046       -0.11031
H          0.11816        3.85259        0.90845
H          0.59958        2.39302        1.81557
H          1.85353        3.50909        1.19008
H          0.53468        3.82281       -1.62071
H          2.26484        3.48978       -1.31518
H          1.29706        2.35979       -2.29950
