38
1sa1msa1dma1eda_268.log	Energy: -1060545.9430407
S         -0.11501        1.70860        0.00550
O         -0.16465        0.76840       -1.16929
O          0.01206        0.97020        1.27186
O          1.15078        2.61037       -0.17523
O         -1.28567        2.61748       -0.05281
H          2.00585        1.97643       -0.11579
H         -2.50167        1.80146       -0.70052
S          0.53561       -2.50840       -0.20782
O          1.23956       -3.72388       -0.56388
O         -0.90650       -2.41729       -0.41986
O          1.24273       -1.31187       -0.97609
H          0.62225       -0.49409       -1.06417
C          0.86857       -2.12456        1.49861
H          0.36918       -2.88355        2.10240
H          1.94748       -2.16976        1.65120
H          0.47732       -1.12477        1.70119
N          3.13568        0.97561        0.01774
C          3.40990        0.80745        1.44749
C          4.31731        1.35023       -0.76036
H          2.75794        0.10089       -0.34756
H          3.77568        1.75399        1.85520
H          2.47647        0.55712        1.95568
H          4.16268        0.03036        1.63779
H          4.67678        2.32542       -0.41993
H          5.13130        0.62058       -0.65593
H          4.04588        1.43146       -1.81483
H         -3.92219       -0.76914       -1.32561
H         -2.15247       -0.51784       -1.21959
H         -3.08953       -1.53039        0.88121
H         -2.30801        0.02190        1.15615
H         -5.17375       -0.50266        1.24237
H         -4.27140        0.50526        2.16127
H         -3.49609        1.45172       -2.02528
H         -4.14604        1.49415       -0.47081
C         -3.12040       -0.22992       -0.81324
C         -3.17671       -0.45624        0.69344
N         -3.33449        1.22950       -1.04633
N         -4.40344        0.15620        1.21993
