41
1sa1msa1tma1eda_04.log	Energy: -1085223.5872331
S          0.34250       -1.78674       -0.57191
O          0.68792       -0.55524       -1.54449
O         -0.70888       -2.59162       -1.18078
O          1.66721       -2.44842       -0.45137
O         -0.05742       -1.17084        0.72725
H          2.62705       -1.25542        0.06730
H         -1.55948       -0.54726        0.95499
S         -0.40555        2.50813       -0.05818
O          1.01593        2.37169        0.30701
O         -1.34278        2.47872        1.09828
O         -0.83208        1.53807       -1.11699
H          0.07649        0.22145       -1.39062
C         -0.59594        4.12451       -0.79207
H          0.05222        4.17900       -1.66702
H         -1.64032        4.25287       -1.07632
H         -0.30455        4.86707       -0.04895
H         -4.12202        0.42964       -0.18035
H         -2.65702       -0.05197       -1.05652
H         -4.37328       -1.89673       -1.06951
H         -2.88669       -2.37247       -0.25041
H         -5.43677       -1.71846        1.03655
H         -4.41848       -2.96264        1.33339
H         -2.20822        0.97424        1.14033
H         -2.99705       -0.38606        1.82939
C         -3.28265       -0.27218       -0.19130
C         -3.76061       -1.71825       -0.17685
N         -2.47311       -0.02881        1.02632
N         -4.45855       -1.98171        1.08551
N          3.33184       -0.55885        0.44999
C          3.55277        0.48802       -0.58067
H          3.81444        0.00079       -1.52014
H          2.63062        1.05759       -0.69493
H          4.36103        1.14426       -0.24807
C          2.76493        0.01742        1.69823
H          1.88742        0.61092        1.43954
H          2.48087       -0.80107        2.35977
H          3.52291        0.65014        2.16698
C          4.55284       -1.35354        0.70944
H          4.31279       -2.14220        1.42305
H          4.88752       -1.80294       -0.22604
H          5.33068       -0.70215        1.11446
