32
1sa1msa1a1eda_170.log	Energy: -1011230.1990600
S          1.39684       -1.66462        0.29054
O          2.79240       -1.21304        0.28600
O          0.64198       -1.47743        1.51956
O          0.67501       -1.13654       -0.92182
O          1.42101       -3.27427        0.08843
H          2.02629       -3.48268       -0.63594
S         -2.61553       -0.20442       -0.26874
O         -3.97596       -0.03567       -0.73101
O         -1.75314        0.97610       -0.15227
O         -1.91698       -1.24892       -1.23345
H         -0.92056       -1.25380       -1.10316
C         -2.61157       -1.04454        1.29861
H         -3.08108       -0.37779        2.02311
H         -3.19182       -1.96041        1.18676
H         -1.57517       -1.26061        1.57089
N          3.84328        1.24233       -1.09030
H          4.20537        1.09993       -2.02776
H          3.72648        0.32189       -0.65804
H          4.55406        1.74313       -0.56700
H          0.18254        1.23565        1.15868
H          1.91194        1.60846        1.25652
H          0.36034        3.48710        2.05881
H          1.49236        3.98490        0.79391
H         -1.29662        3.21863        0.23707
H         -0.62716        4.72246        0.07905
H          0.78652        0.66594       -0.90589
H          0.46046        2.30728       -1.14745
C          0.97054        1.88486        0.77885
C          0.61901        3.35535        0.99954
N          1.08506        1.63262       -0.68330
N         -0.43436        3.72922        0.06169
H          2.08479        1.71939       -0.99065
