36
1sa1msa2dma_220.log	Energy: -1025797.9545943
S          1.50588        0.41455       -0.79736
O          0.51477        0.07892       -1.83290
O          2.65570        1.19861       -1.23237
O          0.77666        1.35044        0.28141
O          1.92643       -0.81457       -0.03406
H         -0.05395        0.90034        0.56737
H          3.30751       -0.52863        0.58238
S         -1.89008       -1.36681        0.19527
O         -3.26743       -1.74294        0.43023
O         -1.36130       -0.19364        0.90276
O         -1.71286       -1.16865       -1.35891
H         -0.86108       -0.67344       -1.57093
C         -0.82013       -2.73829        0.56138
H         -0.92610       -2.94842        1.62640
H         -1.14489       -3.59014       -0.03591
H          0.20276       -2.43819        0.32107
N         -4.47732        1.35393        0.18149
C         -4.06468        1.98490        1.42247
C         -3.69059        1.80024       -0.95511
H         -4.40319        0.34592        0.27310
H         -4.26457        3.06160        1.36673
H         -4.64710        1.57903        2.25452
H         -2.99246        1.84768        1.64789
H         -3.90383        2.85696       -1.15492
H         -2.60044        1.70257       -0.80456
H         -3.96578        1.22662       -1.84405
N          4.26530       -0.22326        0.97942
C          4.08534        1.09891        1.63384
C          5.25218       -0.20925       -0.12969
H          4.53517       -0.91651        1.67585
H          3.76127        1.80497        0.86917
H          3.30812        1.01075        2.39276
H          5.02732        1.41674        2.08377
H          4.87534        0.47430       -0.89072
H          6.22246        0.11842        0.24762
H          5.32641       -1.21345       -0.54708
