30
1sa1msa1a1dma_132.log	Energy: -976472.3608611
S         -1.85129        0.32402       -0.30624
O         -0.52572        0.87234       -0.02272
O         -2.83831        1.16416       -0.93920
O         -1.68590       -0.94574       -1.22964
O         -2.39516       -0.24125        1.04300
H         -0.90200       -1.48757       -0.93956
H         -3.43985       -0.34081        0.98499
S          1.75564       -1.65737       -0.07249
O          2.53988       -1.28801       -1.23104
O          0.43337       -2.26427       -0.30033
O          1.57771       -0.43323        0.92198
H          0.80048        0.12164        0.63587
C          2.69195       -2.73397        0.97885
H          2.89269       -3.63811        0.40342
H          3.62205       -2.22656        1.23430
H          2.10220       -2.95660        1.86705
N         -4.96800       -0.33833        0.75263
H         -5.33226       -1.21658        0.39637
H         -5.09216        0.36957        0.03160
H         -5.51945       -0.07045        1.56167
N          1.58789        3.23345       -0.00808
C          2.14221        3.09690        1.32690
C          2.43870        2.64628       -1.03013
H          0.67115        2.80158       -0.04549
H          3.05985        3.69179        1.40378
H          1.43184        3.48357        2.06330
H          2.39716        2.05642        1.59930
H          3.38271        3.20124       -1.08122
H          2.68196        1.58430       -0.85280
H          1.95079        2.72722       -2.00497
