38
1sa1msa1dma1eda_322.log	Energy: -1060542.3807510
S          0.39077       -2.20752       -0.60617
O         -1.06603       -2.50778       -0.71326
O          1.24737       -3.01492       -1.44427
O          0.55386       -0.69281       -1.19675
O          0.80778       -2.08329        0.81615
H         -0.11763       -0.12701       -0.75465
H          1.89704       -0.88251        0.96472
S         -2.68514        0.28355        0.35613
O         -3.54176        0.70202       -0.73541
O         -1.26884        0.72705        0.27589
O         -2.72266       -1.24632        0.60872
H         -2.00301       -1.79896        0.05025
C         -3.34341        0.88209        1.89256
H         -3.38851        1.96916        1.82022
H         -4.34318        0.46455        2.01193
H         -2.68693        0.56185        2.70072
N          2.61902       -0.11505        1.02202
C          3.56338       -0.28126       -0.10296
C          3.25305       -0.16034        2.35162
H          2.09305        0.80405        0.91836
H          4.05049       -1.25437       -0.02352
H          2.99687       -0.24098       -1.03312
H          4.30940        0.51559       -0.07316
H          3.74124       -1.12642        2.48945
H          3.99072        0.64056        2.43586
H          2.48296       -0.03542        3.11369
H          1.38127        4.23257       -0.15776
H          2.81466        3.18782       -0.27895
H          1.70714        3.23575       -2.39819
H          1.48501        1.61773       -1.72601
H         -0.52292        2.87957       -2.70716
H         -0.78497        2.20763       -1.24829
H          1.37884        2.85027        1.72608
H          0.27025        2.14510        0.76665
C          1.71779        3.19510       -0.27273
C          1.19824        2.67537       -1.60762
N          1.26689        2.34799        0.84981
N         -0.23647        2.90986       -1.73615
