27
1sa1msa1a1ma_164.log	Energy: -951818.9447276
S          1.58447       -0.08651       -0.15015
O          2.35072       -0.91390       -1.06573
O          0.34665       -0.59894        0.41819
O          2.50579        0.30945        1.06407
O          1.29385        1.27076       -0.86717
H          3.48713        0.38697        0.72688
H          0.43772        1.75189       -0.44880
S         -3.26419       -0.22538        0.06996
O         -2.97983        0.32230        1.38043
O         -3.03951        0.60794       -1.10793
O         -4.82860       -0.66953        0.02433
H         -5.28603       -0.08335       -0.59561
C         -2.49010       -1.80516       -0.11126
H         -2.83250       -2.44061        0.70559
H         -2.76969       -2.21445       -1.08130
H         -1.41350       -1.62439       -0.04129
N         -0.81337        2.36015        0.10722
H         -1.06156        1.86962        0.96507
H         -1.57901        2.18899       -0.54329
H         -0.77080        3.35389        0.30801
N          4.92052        0.33010        0.07415
H          4.74336        0.50916       -0.91105
C          5.44302       -1.03319        0.25137
H          6.39087       -1.20229       -0.27140
H          5.58839       -1.22279        1.31706
H          4.69570       -1.73435       -0.12440
H          5.58525        1.02560        0.39779
