40
1sa1msa2eda_297.log	Energy: -1095266.1516993
S         -0.07954       -0.43679       -0.59303
O          0.74888        0.79575       -0.52246
O         -1.32556       -0.27187       -1.33154
O          0.75972       -1.50621       -1.42490
O         -0.27555       -1.01773        0.76788
H          1.68591       -1.52953       -1.08185
H         -1.72478       -1.29821        1.23564
S          4.00647       -0.18763        0.06954
O          4.91424        0.38717       -0.90188
O          3.23097       -1.37364       -0.32218
O          3.02146        0.90014        0.64809
H          2.10966        0.85926        0.19593
C          4.91171       -0.59246        1.54340
H          5.65675       -1.33702        1.26203
H          5.39344        0.31512        1.90672
H          4.21476       -0.99266        2.27869
H         -3.28681        4.08166       -0.68036
H         -3.98311        3.45243        0.83057
H         -1.85201        4.43228        1.28696
H         -1.70272        2.68447        1.51170
H          0.02083        4.07094        0.10174
H         -0.38305        2.59393       -0.43648
H         -4.14044        1.92384       -1.09943
H         -2.53764        1.68985       -1.02885
C         -3.19273        3.29742        0.08479
C         -1.83435        3.47569        0.75366
N         -3.34708        1.94680       -0.46569
N         -0.75803        3.51617       -0.23116
H         -4.72632       -1.12901        1.33365
H         -3.60663       -0.04054        0.44893
H         -4.69559       -1.76520       -1.06724
H         -2.93486       -1.87533       -1.02740
H         -4.81662       -3.74248        0.21031
H         -3.42511       -4.04910       -0.59330
H         -2.74363       -1.13486        2.57405
H         -2.76753       -2.56274        1.69029
C         -3.79805       -1.07735        0.75538
C         -3.84017       -2.03037       -0.43502
N         -2.68986       -1.53664        1.64147
N         -3.87033       -3.41243        0.05625
