28
1sa1msa1eda_27.log	Energy: -975732.3995303
S          2.56953       -0.36291       -0.08961
O          3.75675       -1.19056       -0.17676
O          2.71562        1.04585       -0.50968
O          1.32391       -0.91932       -0.68822
O          2.17459       -0.30411        1.50432
H          2.96465       -0.54401        2.00571
S         -1.86289       -1.30911        0.02414
O         -1.76816       -0.39232       -1.12302
O         -2.05270       -0.68589        1.32635
O         -0.64120       -2.29019        0.02869
H          0.23322       -1.79820       -0.20038
C         -3.17227       -2.46779       -0.27491
H         -3.00435       -2.93668       -1.24369
H         -3.16079       -3.20494        0.52760
H         -4.10616       -1.90521       -0.26815
H         -0.17398        1.12229        1.12552
H          0.54017        2.73372        0.92830
H         -2.34751        1.93029        0.28952
H         -1.84661        2.91562        1.66425
H         -2.61140        4.03281       -0.57698
H         -1.27717        4.65396        0.13528
H          1.11821        1.56364       -0.95690
H         -0.43333        0.92678       -1.17398
C         -0.22807        2.05112        0.55680
C         -1.61628        2.67267        0.61995
N          0.09612        1.75923       -0.86500
N         -1.66370        3.81874       -0.29173
H         -0.19876        2.57282       -1.41588
