38
1sa1msa1dma1eda_40.log	Energy: -1060563.1657220
S          2.86263        0.29200       -0.24154
O          2.67535        1.64722       -0.80244
O          2.63936        0.21921        1.20713
O          2.14308       -0.75628       -0.99416
O          4.42058       -0.08162       -0.51826
H          4.96221        0.66036       -0.21749
S         -2.61236       -0.58222       -0.12910
O         -3.17307        0.72674        0.24464
O         -2.14933       -1.39615        1.03219
O         -1.52392       -0.49068       -1.15365
C         -3.92871       -1.50709       -0.89987
H         -4.73030       -1.62116       -0.16984
H         -4.27445       -0.94562       -1.76785
H         -3.53992       -2.48029       -1.20054
N          0.40506       -2.26608        0.46232
C          1.15188       -2.67506        1.67025
C          0.08390       -3.36871       -0.46698
H         -0.49768       -1.81785        0.73580
H          2.06672       -3.18602        1.36656
H          1.41735       -1.77764        2.22836
H          0.52792       -3.33809        2.27158
H          1.01145       -3.82456       -0.81602
H         -0.53238       -4.10644        0.04940
H         -0.46183       -2.94319       -1.30928
H          0.98094       -1.57198       -0.06486
H         -0.86988        1.23684        1.11425
H          0.75774        1.94239        1.19049
H         -1.17881        3.42292        2.04646
H         -0.14814        4.19038        0.82812
H         -2.69680        2.86288        0.18777
H         -2.38046        4.48789        0.09655
H         -0.47591        0.90598       -1.02295
H         -0.69758        2.54557       -1.18318
C         -0.22766        2.03029        0.73188
C         -0.87773        3.38918        0.99110
N         -0.09234        1.83467       -0.74342
N         -1.97145        3.56396        0.04028
H          0.90003        1.91416       -1.02939
