36
1sa1msa2dma_216.log	Energy: -1025797.7058872
S          1.96727       -1.39286       -0.08394
O          0.59423       -1.92457       -0.19946
O          3.04737       -2.30140       -0.40905
O          2.09406       -0.21264       -1.19494
O          2.15180       -0.67450        1.22179
H          1.29895        0.36811       -1.11630
H          3.29741        0.26098        1.13080
S         -1.42821        0.86698       -0.52485
O         -2.15116        0.73895       -1.77594
O         -0.03136        1.33748       -0.60005
O         -1.46279       -0.48406        0.29190
H         -0.64280       -1.06515        0.11253
C         -2.33051        1.91510        0.57980
H         -2.42762        2.88292        0.08663
H         -3.30691        1.43797        0.73635
H         -1.76963        1.99887        1.51026
N         -4.68589       -0.33594        0.56218
C         -5.34665       -0.25268       -0.73304
C         -5.57009       -0.79155        1.62205
H         -3.88334       -0.95456        0.49298
H         -6.12030        0.52251       -0.69537
H         -4.61615        0.02871       -1.49501
H         -5.83106       -1.19637       -1.03711
H         -6.36019       -0.04888        1.77996
H         -6.05747       -1.75792        1.40513
H         -5.01047       -0.88982        2.55638
N          4.11397        0.97529        0.98728
C          3.52925        2.25539        0.52394
C          5.09150        0.38227        0.03943
H          4.55333        1.10429        1.89751
H          3.03397        2.07112       -0.42860
H          2.78917        2.58862        1.25117
H          4.31478        3.00423        0.40601
H          4.57966        0.21162       -0.90757
H          5.93435        1.06323       -0.09303
H          5.42467       -0.57696        0.43467
