32
1sa1msa1a1eda_92.log	Energy: -1011236.4752842
S          1.29478        2.00072       -0.14124
O          0.33861        1.55370        0.87005
O          0.81526        1.41886       -1.53623
O          1.55123        3.40170       -0.31723
O          2.67255        1.28264        0.11497
H          2.53379        0.29239        0.19625
S          0.91442       -1.94953       -0.19382
O          0.15005       -2.47497        0.94660
O          2.19709       -1.29598        0.16273
O          0.05596       -1.04202       -1.04775
H          0.54910        0.45814       -1.42408
C          1.34049       -3.32433       -1.24152
H          0.41913       -3.82371       -1.54071
H          1.87645       -2.93987       -2.10919
H          1.97430       -3.99540       -0.66162
N         -0.50649       -0.35621        3.01069
H         -0.68330       -0.33419        4.00856
H          0.11795        0.41176        2.77048
H         -0.01902       -1.22123        2.77872
H         -3.42390        1.20231        1.19866
H         -1.94160        1.75795        0.39100
H         -3.89172        1.82183       -1.18529
H         -2.66995        0.66698       -1.72020
H         -5.23775       -0.00348       -0.49566
H         -4.52904       -0.64249       -1.82330
H         -1.60284       -0.31345        1.68672
H         -2.73494       -1.05464        0.62036
C         -2.70975        0.98435        0.39901
C         -3.41747        0.86181       -0.94454
N         -2.05076       -0.30058        0.71802
N         -4.34622       -0.26876       -0.90020
H         -1.28511       -0.50560        0.04788
