35
1sa1msa1ma1eda_183.log	Energy: -1035885.4876315
S         -1.93381       -1.34897       -0.36807
O         -2.72640       -0.72134        0.69064
O         -2.06085       -0.84374       -1.72261
O         -0.49427       -1.44923        0.09099
O         -2.42700       -2.89028       -0.48585
H         -2.50129       -3.25444        0.40626
S          2.67545       -0.48279       -0.03951
O          3.02143       -1.50742        0.93146
O          2.15018        0.78006        0.49685
O          1.69787       -1.04015       -1.14176
H          0.78342       -1.26095       -0.74582
C          4.07398       -0.12067       -1.07061
H          4.84616        0.28663       -0.41739
H          4.40890       -1.04888       -1.53257
H          3.77234        0.60905       -1.82102
N         -0.21788        0.55760        2.02326
H         -0.35890       -0.21581        1.34441
H          0.79510        0.68324        2.08517
C         -0.87260        0.25050        3.30769
H         -0.75482        1.09235        3.99124
H         -1.92937        0.07139        3.11017
H         -0.42598       -0.64265        3.74529
H         -0.62205        1.44937        1.57944
H         -0.34446        4.17992       -0.66766
H          0.82444        3.09543        0.12248
H          0.33664        2.33017       -2.17779
H         -0.17774        1.14619       -0.98860
H         -1.91932        2.78781       -2.62184
H         -2.10270        1.23519       -2.08425
H         -1.28261        3.67010        1.42085
H         -2.05172        2.68373        0.35340
C         -0.19667        3.16750       -0.26586
C         -0.39715        2.14314       -1.38178
N         -1.15539        2.86813        0.81177
N         -1.78323        2.16632       -1.83431
