30
1sa1msa2ma_50.log	Energy: -976493.0997980
S          2.27335       -0.49758       -0.20662
O          2.46982       -0.25529        1.21189
O          1.39399       -1.66129       -0.54190
O          1.86818        0.70070       -0.97742
O          3.73024       -0.94024       -0.75311
H          3.63620       -1.23663       -1.66859
S         -1.90664       -1.06671        0.27404
O         -3.12834       -0.37389       -0.10944
O         -1.13867       -0.52416        1.39820
O         -1.00430       -1.15381       -1.00105
H         -0.00029       -1.36057       -0.79697
C         -2.28041       -2.76272        0.64783
H         -2.92736       -2.77049        1.52550
H         -2.78640       -3.19703       -0.21406
H         -1.34024       -3.27529        0.85440
N         -2.03994        2.51636       -0.63513
H         -2.68320        1.76512       -0.38411
C         -1.50225        2.26064       -1.98111
H         -2.27671        2.20489       -2.75435
H         -0.79551        3.05070       -2.24869
H         -0.96010        1.31203       -1.97265
H         -2.57118        3.38103       -0.62179
N          0.22740        1.91474        0.90234
H         -0.09785        1.03820        1.33506
H          0.88435        1.61908        0.15123
C          0.89375        2.79861        1.87671
H          1.22539        3.70542        1.37066
H          0.19375        3.05773        2.67132
H          1.75424        2.27365        2.29142
H         -0.62852        2.32791        0.43461
