38
1sa1msa1dma1eda_307.log	Energy: -1060542.5221916
S          0.00308        2.25753       -0.01396
O         -0.29341        3.49482       -0.71223
O         -1.18372        1.52238        0.48607
O          0.92514        1.31528       -0.69986
O          0.86212        2.66776        1.31346
H          0.62025        3.57436        1.54474
S          3.19286       -0.99366       -0.11156
O          2.99289       -1.63112       -1.40212
O          2.21980       -1.32755        0.94153
O          3.31060        0.56861       -0.24843
H          2.39390        0.97931       -0.41889
C          4.82094       -1.34551        0.49738
H          4.88309       -2.42610        0.62843
H          5.54151       -1.00513       -0.24579
H          4.95533       -0.82844        1.44664
N         -0.52641       -1.16796        0.31692
C         -1.24813       -2.08548        1.22796
C         -0.64101       -1.51882       -1.11950
H         -0.86453       -0.18988        0.44009
H         -0.77960       -3.06966        1.17226
H         -1.16348       -1.69881        2.24435
H         -2.29857       -2.15221        0.92676
H         -0.30787       -2.54762       -1.26157
H         -1.68253       -1.38557       -1.41625
H         -0.00216       -0.83943       -1.68318
H          0.47648       -1.15383        0.57342
H         -5.96970       -0.82508       -0.45671
H         -5.61069       -1.16133        1.24179
H         -4.81159        1.07082        0.59552
H         -3.46973        0.03346        1.07577
H         -4.15727        0.72086       -1.68046
H         -2.77482        1.02069       -0.85508
H         -4.99612       -3.04073       -0.12089
H         -3.97850       -2.10185       -0.99842
C         -5.15189       -1.02566        0.25666
C         -4.22795        0.18568        0.30063
N         -4.38993       -2.22881       -0.07800
N         -3.52902        0.34841       -0.97468
