23
1sa1msa1ma_61.log	Energy: -916315.7860977
S         -2.23333       -0.31695       -0.13651
O         -3.54128       -0.53766       -0.68402
O         -1.23143        0.45521       -0.85581
O         -2.36847        0.47645        1.25752
O         -1.64371       -1.70143        0.28207
H         -3.15615        0.16659        1.72866
H         -0.66753       -1.61932        0.52815
S          1.96671       -0.91180        0.00960
O          2.88773       -1.93897       -0.41016
O          0.82833       -1.28142        0.87349
O          1.37342       -0.22853       -1.30291
H          0.44685        0.07668       -1.15613
C          2.82390        0.41375        0.80809
H          3.21658        0.01792        1.74572
H          3.63637        0.71906        0.14796
H          2.10098        1.22605        0.96925
N          0.47873        2.65577        0.63692
H         -0.39403        2.15275        0.51041
C          0.85104        3.34071       -0.60167
H          0.10872        4.06528       -0.96269
H          1.79943        3.86572       -0.45479
H          1.00825        2.59822       -1.38884
H          0.32898        3.32468        1.38457
