38
1sa1msa1dma1eda_60.log	Energy: -1060563.4718023
S          2.16296        1.20891       -0.38373
O          1.67791        0.28278       -1.42579
O          1.56560        2.55651       -0.48573
O          2.12832        0.62577        0.96438
O          3.75535        1.41587       -0.65197
H          3.85984        1.90877       -1.47708
S         -2.77396       -0.82848       -0.07569
O         -1.74972       -0.10025       -0.89811
O         -3.41529        0.05336        0.91305
O         -2.18851       -2.07781        0.48291
C         -4.03817       -1.35119       -1.22026
H         -4.48036       -0.46299       -1.67172
H         -3.57688       -1.98200       -1.98004
H         -4.78695       -1.90977       -0.65814
N         -1.07223        2.21830        0.31155
C         -0.89669        1.95984        1.76124
C         -2.19446        3.12611        0.00041
H         -0.17120        2.55969       -0.07437
H         -1.78083        1.43425        2.12455
H          0.00087        1.35374        1.89309
H         -0.76701        2.91245        2.27767
H         -3.11293        2.66601        0.36861
H         -2.02908        4.09111        0.48243
H         -2.25348        3.25534       -1.08041
H         -1.26745        1.30381       -0.17383
H          1.03268       -3.83705        0.31420
H          1.17425       -3.19342       -1.34324
H          3.41833       -3.55494       -0.20897
H          3.15583       -1.88098       -0.70626
H          3.67576       -2.74468        1.88355
H          3.15709       -1.23339        1.45201
H         -0.49069       -2.02761        0.20170
H          0.87924       -1.48832        1.01490
C          1.35675       -2.98484       -0.28714
C          2.82554       -2.65767       -0.00750
N          0.52950       -1.82112        0.10776
N          2.96771       -2.22862        1.38097
H          0.65718       -1.04014       -0.56016
