33
1sa1msa1a1tma_76.log	Energy: -1001133.4637282
S          1.90839       -0.00319       -0.36900
O          0.86262       -0.17093       -1.37289
O          2.85665        1.07562       -0.51163
O          1.23206        0.18504        1.04665
O          2.65292       -1.37259       -0.26395
H          0.43025       -0.39872        1.12638
H          3.59824       -1.22563        0.16245
S         -1.97586       -1.59682        0.13270
O         -3.12275       -0.73095        0.29062
O         -0.85449       -1.45313        1.07497
O         -1.40527       -1.51387       -1.34261
H         -0.54428       -1.00895       -1.37189
C         -2.50559       -3.28985        0.16702
H         -2.95293       -3.46167        1.14644
H         -3.24540       -3.42605       -0.62183
H         -1.63763       -3.92941        0.01218
N          4.98789       -0.81384        0.72840
H          5.07784       -0.91817        1.73425
H          5.03972        0.17852        0.50731
H          5.77588       -1.27915        0.28912
N         -1.69324        3.15557        0.09372
C         -0.42012        3.84792        0.00659
H         -0.37538        4.42534       -0.92203
H         -0.31785        4.54365        0.84548
H          0.44361        3.15551        0.02321
C         -1.80148        2.41864        1.33989
H         -1.72349        3.11042        2.18483
H         -2.76861        1.91197        1.39169
H         -1.00958        1.65326        1.44894
C         -1.89072        2.28343       -1.05037
H         -2.85240        1.77104       -0.96622
H         -1.88991        2.87471       -1.97167
H         -1.09764        1.51698       -1.14081
