41
1sa1msa1tma1eda_190.log	Energy: -1085200.2161136
S         -0.30567        1.98938        0.42588
O         -0.61163        2.29167       -0.97003
O         -1.41536        1.33640        1.16019
O          0.95964        1.26626        0.67575
O         -0.05280        3.41838        1.15545
H         -0.63807        4.06587        0.74023
S          3.33178       -0.65062       -0.56327
O          2.40875       -1.20240       -1.54706
O          3.27114       -1.19791        0.78831
O          3.21690        0.92846       -0.51949
H          2.33490        1.18822       -0.10713
C          4.99286       -0.77497       -1.17949
H          5.20703       -1.83882       -1.28530
H          5.04094       -0.27407       -2.14584
H          5.66631       -0.31291       -0.45851
H         -5.26307       -0.68942       -2.11745
H         -5.59112       -0.34410       -0.41431
H         -4.19921        1.40867       -1.41730
H         -3.33479        0.59082       -0.11439
H         -2.88319        0.10934       -2.96335
H         -1.84921        0.73564       -1.86674
H         -4.92402       -2.64316       -0.72724
H         -3.48305       -2.15369       -1.33273
C         -4.80102       -0.62955       -1.11695
C         -3.73178        0.45578       -1.12479
N         -4.22765       -1.90647       -0.68593
N         -2.61169        0.07037       -1.98498
N         -0.83706       -1.31792        1.39600
C          0.30822       -1.50215        2.32280
H          1.19208       -1.02719        1.89741
H          0.05805       -1.04323        3.28009
H          0.48652       -2.57196        2.45166
C         -2.09336       -1.90082        1.93060
H         -2.34217       -1.39308        2.86365
H         -2.89230       -1.77211        1.19230
H         -1.93180       -2.96529        2.11794
C         -0.53478       -1.82101        0.02808
H         -1.33029       -1.49603       -0.64744
H          0.41640       -1.40704       -0.30604
H         -0.46839       -2.91082        0.06494
H         -1.00829       -0.28831        1.31177
