40
1sa1msa2eda_295.log	Energy: -1095271.0596140
S          1.40528       -1.47130       -0.69504
O          2.78550       -1.39207       -1.21726
O          0.64372       -2.65324       -1.13268
O          1.35507       -1.25467        0.76780
O          0.69499       -0.19017       -1.36775
H          3.33818       -0.05799        1.46290
H         -0.23739       -0.16801       -1.04580
S         -2.34990       -1.55922        0.38309
O         -3.79030       -1.59736        0.47879
O         -1.72319       -0.34140       -0.16315
O         -1.89510       -2.80463       -0.47319
H         -0.92500       -2.76092       -0.73902
C         -1.62258       -1.85598        1.97762
H         -1.93057       -1.03501        2.62683
H         -2.00838       -2.80503        2.34983
H         -0.53677       -1.87142        1.85680
H         -0.44424        3.95897       -0.50942
H         -0.20480        2.24823       -0.84631
H         -2.03788        3.06811       -2.23132
H         -2.66969        1.93430       -1.02797
H         -2.94408        4.84828       -0.93195
H         -4.11245        3.70853       -0.84055
H         -1.73881        3.27402        1.41623
H         -1.35811        1.71988        1.12774
C         -0.90033        2.96575       -0.39689
C         -2.22829        2.92804       -1.15539
N         -1.01317        2.67344        1.03110
N         -3.15215        3.91471       -0.59334
H          2.17994        1.63004       -0.72355
H          2.65879        3.11135        0.11269
H          4.62193        1.63078       -0.57503
H          4.55332        2.03058        1.16945
H          3.63340       -0.52051       -0.11170
H          4.91483       -0.29758        0.97527
H          1.10617        2.32453        1.57420
H          1.36308        0.77337        1.23027
C          2.61252        2.02269        0.20635
C          4.04893        1.51802        0.34747
N          1.85244        1.65203        1.39384
N          4.00796        0.06565        0.69070
