38
1sa1msa1dma1eda_250.log	Energy: -1060545.3175769
S         -0.00909        0.26377       -0.87902
O          1.18206        0.51415       -1.71501
O         -1.22708       -0.04625       -1.63367
O          0.27226       -1.10459       -0.06531
O         -0.21044        1.30719        0.15621
H          1.17136       -1.04858        0.34021
H         -1.51947        0.82587        1.15126
S          3.93552       -0.19696        0.24479
O          4.77970       -1.18544       -0.39431
O          2.73926       -0.67299        0.95903
O          3.51692        0.94081       -0.75958
H          2.58485        0.79162       -1.14332
C          4.90851        0.75524        1.38528
H          5.28249        0.06153        2.13880
H          5.73419        1.20432        0.83364
H          4.27100        1.51667        1.83274
N         -3.07078       -1.66045        0.07105
C         -4.49788       -1.79095       -0.22305
C         -2.47388       -2.88834        0.59846
H         -2.56552       -1.38145       -0.77193
H         -5.03769       -2.01678        0.70314
H         -4.86085       -0.84094       -0.62190
H         -4.70219       -2.59678       -0.94154
H         -2.91980       -3.12040        1.57186
H         -2.63817       -3.74747       -0.06587
H         -1.39944       -2.73794        0.71878
H         -2.45394        2.83486        0.14019
H         -4.18843        3.11774        0.34126
H         -3.21946        2.24561        2.39759
H         -4.41651        1.10514        1.72845
H         -2.22969        0.14864        2.50626
H         -2.73678       -0.39967        0.95626
H         -4.16758        2.00633       -1.62701
H         -2.91609        1.03158       -1.24866
C         -3.42735        2.33630        0.25206
C         -3.43846        1.56650        1.56858
N         -3.75844        1.46842       -0.87241
N         -2.41967        0.48284        1.56431
