36
1sa1msa1ma1tma_79.log	Energy: -1025806.5974517
S          0.80961       -1.58763        0.07543
O         -0.44855       -2.36915        0.08848
O          1.30837       -1.17874       -1.22902
O          0.78592       -0.48715        1.07171
O          1.92766       -2.64360        0.60523
H          1.52293       -3.18031        1.29931
S         -2.98561        0.10820       -0.02797
O         -2.02071        0.54603       -1.03670
O         -3.04553        0.87991        1.20580
O         -2.80353       -1.42548        0.26625
H         -1.83460       -1.73834        0.19117
C         -4.60935        0.06618       -0.74850
H         -4.57267       -0.53816       -1.65409
H         -5.29770       -0.35889       -0.01828
H         -4.88252        1.09664       -0.97772
N          3.98371        0.26340       -0.99290
H          3.24029       -0.34220       -1.33694
C          4.51981       -0.28312        0.25603
H          4.93559       -1.29525        0.16487
H          5.30307        0.37934        0.63903
H          3.72049       -0.32394        1.00147
H          4.70621        0.28921       -1.70467
N          0.99044        2.04303        0.19383
C         -0.15034        2.70510        0.87498
H         -1.08003        2.24643        0.54259
H         -0.04541        2.55897        1.95030
H         -0.13518        3.77059        0.63467
C          2.29835        2.57443        0.64849
H          2.38522        2.41576        1.72435
H          3.08819        2.03532        0.11542
H          2.34129        3.64353        0.42589
C          0.86194        2.09555       -1.28614
H          1.71637        1.57614       -1.71823
H         -0.06445        1.59463       -1.56460
H          0.84975        3.14337       -1.59690
H          0.94838        1.02966        0.47344
