41
1sa1msa1tma1eda_49.log	Energy: -1085219.0209346
S         -0.81648       -1.64888       -0.69549
O         -0.28598       -1.30583        0.65746
O         -1.10842       -0.25450       -1.41592
O          0.14504       -2.41856       -1.48390
O         -2.17920       -2.23684       -0.62282
H         -3.23695       -1.06197       -0.52873
S          1.26462        2.22098       -0.18180
O          2.42272        1.80280        0.63394
O          0.06616        2.59017        0.59763
O          0.96796        1.23071       -1.26966
H         -0.30055        0.35759       -1.35566
C          1.77463        3.69815       -1.05089
H          2.01595        4.45916       -0.30827
H          2.65089        3.45698       -1.65308
H          0.95056        4.02509       -1.68552
H         -4.93003        0.46037        1.37275
H         -3.93414       -0.99351        1.65953
H         -2.88868        1.17014        2.56765
H         -1.86231        0.31405        1.41101
H         -3.28675        2.79211        0.92625
H         -1.80071        2.29064        0.42217
H         -4.80376       -0.43929       -0.74881
H         -3.49388        0.62693       -0.69152
C         -3.97791       -0.02936        1.15056
C         -2.79488        0.87682        1.51527
N         -3.90220       -0.25560       -0.31829
N         -2.76684        1.99446        0.57819
N          2.38275       -1.64965        0.67658
C          3.07811       -1.19240       -0.55587
H          2.53293       -1.58509       -1.41406
H          3.06272       -0.10347       -0.57136
H          4.10334       -1.57132       -0.53444
C          2.94873       -1.02609        1.89851
H          2.87183        0.05727        1.78898
H          2.36968       -1.36316        2.75945
H          3.99143       -1.33553        2.00453
C          2.34461       -3.12944        0.76232
H          1.76126       -3.41359        1.63882
H          1.85625       -3.50866       -0.13579
H          3.36533       -3.50973        0.84754
H          1.37343       -1.35286        0.61652
