27
1sa1msa1a1ma_129.log	Energy: -951824.6270643
S          1.82831       -0.04494        0.09537
O          1.86595       -1.38025       -0.51523
O          0.65644        0.21327        0.95443
O          3.08681        0.07020        1.06764
O          1.98202        1.05390       -0.91569
H          3.85713       -0.42504        0.64709
H          0.69996        1.90784       -0.88785
S         -2.74527       -0.55061        0.02684
O         -3.25587       -0.07552        1.30053
O         -2.25867        0.41445       -0.95354
O         -3.95503       -1.35049       -0.70524
H         -4.73399       -1.29483       -0.13323
C         -1.54781       -1.83085        0.24402
H         -0.67249       -1.35118        0.69588
H         -1.98262       -2.59076        0.89280
H         -1.29221       -2.23062       -0.73713
N          4.85985       -1.46548       -0.27437
H          5.41896       -2.15444        0.21593
H          5.43589       -1.02837       -0.98519
H          4.08230       -1.93790       -0.73359
N         -0.24821        2.41150       -0.78065
H         -0.39490        3.02929       -1.57538
C         -0.30359        3.13815        0.50994
H         -1.28500        3.59591        0.63675
H         -0.11526        2.40644        1.29481
H          0.47518        3.90039        0.52161
H         -0.96772        1.67157       -0.80972
