35
1sa1msa1ma1eda_245.log	Energy: -1035882.4515964
S          0.09595        1.83502       -0.27989
O          0.01080        1.19135       -1.59206
O          0.09845        0.80953        0.83024
O          1.21930        2.76607       -0.09696
O         -1.21194        2.71705       -0.06596
H         -1.99086        2.12008       -0.15351
S         -2.95107       -0.70469        0.09797
O         -2.93047       -1.54449       -1.08337
O         -3.12643        0.74303       -0.07261
O         -1.67992       -0.96784        0.99260
H         -0.97782       -0.21710        0.90337
C         -4.22766       -1.28393        1.19101
H         -5.17557       -1.15965        0.66654
H         -4.04231       -2.33677        1.40285
H         -4.20488       -0.68652        2.10166
N          2.95250        0.74522        0.68470
H          2.29435        0.34352        1.35560
H          2.87408        0.12152       -0.17716
C          4.32046        0.84548        1.21995
H          4.98631        1.19975        0.43271
H          4.33859        1.55062        2.05117
H          4.63734       -0.13922        1.56216
H          2.53907        1.66401        0.42337
H          2.77556       -3.55362       -1.08900
H          1.73473       -3.63412        0.33167
H          0.69447       -2.34132       -1.49907
H          0.88324       -1.40260       -0.02229
H          2.71263       -1.19845       -2.30802
H          1.54438       -0.13016       -1.87551
H          3.76005       -3.09569        1.21763
H          4.16700       -2.06174        0.03293
C          2.34876       -2.95581       -0.26765
C          1.43607       -1.87864       -0.83583
N          3.38801       -2.38241        0.59988
N          2.20625       -0.82112       -1.51120
