27
1sa1msa1a1ma_75.log	Energy: -951831.8669172
S          2.17324       -0.71084       -0.13019
O          2.09690        0.13165       -1.32661
O          2.80024       -0.05533        1.03196
O          0.89225       -1.35613        0.25231
O          3.09435       -1.98796       -0.51356
H          3.90997       -1.65959       -0.91573
S         -2.34981       -0.42780       -0.03767
O         -2.62456        0.78460       -0.79078
O         -1.87342       -0.26250        1.34383
O         -1.37353       -1.36529       -0.82776
H         -0.41667       -1.35655       -0.45015
C         -3.81185       -1.43431       -0.01107
H         -4.58932       -0.85968        0.49302
H         -4.09390       -1.64183       -1.04318
H         -3.58937       -2.35381        0.52906
N          0.47372        1.18849        2.00145
H         -0.33558        0.56713        1.82760
H          0.56973        1.88142        1.16396
H          0.35595        1.67505        2.88476
H          1.34617        0.63258        1.99318
N          0.86201        2.69040       -0.25315
H          1.61710        3.36312       -0.15404
C         -0.31239        3.32099       -0.87514
H         -0.09290        3.76047       -1.85482
H         -1.09730        2.57169       -0.99530
H         -0.69193        4.10904       -0.21884
H          1.23077        1.94471       -0.84964
