40
1sa1msa2eda_149.log	Energy: -1095285.7346257
S          0.72561       -1.64843       -0.56228
O          0.09095       -0.89991        0.59016
O          1.84784       -2.47739       -0.13758
O         -0.33300       -2.34355       -1.32562
O          1.27358       -0.52021       -1.52696
H         -1.81570       -1.69635       -0.94203
H          2.24153       -0.17974       -1.21903
S         -0.76280        2.36721       -0.03573
O         -0.93821        3.68465        0.53700
O         -1.97053        1.55639       -0.27506
O          0.23182        1.56268        0.86707
H          0.18149        0.52856        0.72062
C          0.09666        2.50306       -1.58686
H         -0.55866        3.03593       -2.27666
H          1.01040        3.07168       -1.41100
H          0.32453        1.49457       -1.93838
H         -3.14009       -2.58985        0.83326
H         -2.12554       -1.27048        1.44907
H         -4.50916       -1.02127        2.24219
H         -4.02172        0.32193        1.20201
H         -5.77820       -1.88625        0.42916
H         -5.98084       -0.27891        0.20447
H         -3.45940       -1.21566       -1.15322
H         -2.31754       -0.13705       -0.57806
C         -2.98000       -1.50832        0.81503
C         -4.23998       -0.75048        1.21320
N         -2.62114       -1.12849       -0.57259
N         -5.29067       -1.01949        0.22897
H          4.64980        1.43902        0.63128
H          2.90202        1.77488        0.52708
H          3.63070        0.40069        2.53877
H          2.33345       -0.30688        1.58435
H          4.72289       -1.53262        2.16455
H          3.62747       -2.01662        1.03224
H          3.95530        0.93813       -1.56616
H          4.20882       -0.48583       -0.78678
C          3.66086        0.98807        0.47962
C          3.39882       -0.05454        1.57079
N          3.59292        0.32919       -0.83820
N          4.21545       -1.24642        1.33865
