39
1sa1msa1dma1tma_114.log	Energy: -1050465.8114024
S          0.79875        1.71675       -0.37243
O          1.89873        2.38333        0.31985
O          1.19594        0.75555       -1.42112
O         -0.20209        1.11295        0.54369
O          0.00936        2.88034       -1.18751
H          0.26241        3.72609       -0.79405
S         -3.28338       -0.23800        0.33879
O         -2.72962       -1.20111        1.28533
O         -3.11506       -0.53504       -1.07979
O         -2.76144        1.21640        0.66667
H         -1.75216        1.25056        0.59273
C         -5.00659        0.01495        0.68392
H         -5.11229        0.30574        1.72848
H         -5.38143        0.78880        0.01485
H         -5.50594       -0.93562        0.49425
N          3.50944       -0.22973        0.89620
C          4.43397        0.06106       -0.19189
C          4.18798       -0.64172        2.11538
H          2.97132        0.61518        1.07460
H          4.95672       -0.85708       -0.48994
H          3.86985        0.43598       -1.04946
H          5.19867        0.80794        0.07657
H          4.68678       -1.60475        1.95321
H          4.95151        0.07708        2.45767
H          3.45671       -0.77279        2.91839
N          0.79351       -1.83099       -0.71702
C         -0.33078       -2.26035       -1.58557
H         -1.22658       -1.69358       -1.32798
H         -0.06257       -2.06330       -2.62415
H         -0.50372       -3.32849       -1.43614
C          2.07321       -2.47800       -1.09439
H          2.30413       -2.22357       -2.12955
H          2.84295       -2.08546       -0.42796
H          1.96846       -3.56012       -0.98657
C          0.49608       -2.02773        0.72699
H          1.32344       -1.59732        1.29185
H         -0.43905       -1.52525        0.97205
H          0.40742       -3.10008        0.91778
H          0.92704       -0.80363       -0.88626
