32
1sa1msa1a1eda_294.log	Energy: -1011224.0875884
S          0.54969       -1.77180        0.16851
O          0.72615       -0.76527       -0.91885
O         -0.75498       -2.45830        0.04212
O          1.72089       -2.62806        0.33961
O          0.48150       -0.92972        1.53939
H          3.44385       -1.55449       -0.43912
H         -0.33263       -0.37648        1.50987
S         -2.57753        0.52185       -0.14815
O         -2.18978        1.46470       -1.18062
O         -1.78838        0.51272        1.09340
O         -2.68209       -0.93895       -0.71833
H         -1.90413       -1.54293       -0.44156
C         -4.27708        0.80852        0.28025
H         -4.34151        1.82098        0.67968
H         -4.87305        0.71377       -0.62733
H         -4.57540        0.07333        1.02658
N          3.40715       -0.80075       -1.13322
H          3.94057       -1.05437       -1.95913
H          3.71358        0.15527       -0.72888
H          2.38163       -0.72238       -1.34192
H          2.32442        0.57688        1.08189
H          3.09262        1.91730        1.91723
H          0.62489        2.22059        1.41536
H          1.64509        3.53149        0.79571
H          0.61177        1.30860       -0.81830
H          0.23947        2.88258       -0.96846
H          3.15836        2.19045       -0.90121
H          4.43591        2.27000        0.14244
C          2.63920        1.61980        0.96780
C          1.39910        2.46922        0.67524
N          3.63225        1.71459       -0.12746
N          0.98721        2.24993       -0.70819
