40
1sa1msa2eda_75.log	Energy: -1095295.4059460
S         -2.54036       -0.18183       -0.30962
O         -3.18972       -1.48962       -0.29040
O         -2.50807        0.51933        0.98760
O         -1.20614       -0.16984       -0.97208
O         -3.39418        0.76584       -1.31880
H         -4.32305        0.73541       -1.05139
S          3.08263        0.13252       -0.22833
O          2.61952        1.26421       -1.04949
O          3.04646       -1.18513       -0.92057
O          2.35908        0.07741        1.08702
C          4.79977        0.41445        0.16003
H          5.35417        0.43514       -0.77842
H          4.88070        1.37164        0.67531
H          5.14781       -0.39900        0.79651
H          1.31413       -3.58898        0.81197
H          1.04514       -1.92556        1.36878
H         -0.70207       -3.67835        2.16973
H         -1.37465       -2.24424        1.41017
H         -1.64265       -4.88540        0.48951
H         -2.27897       -3.49751       -0.13430
H          1.53392       -1.96618       -0.93664
H          0.21486       -3.05681       -1.20451
C          0.62562       -2.74102        0.77566
C         -0.78185       -3.14389        1.21744
N          0.58290       -2.28807       -0.63860
N         -1.42392       -3.94860        0.17835
H         -0.07827       -1.49474       -0.76157
H          0.67018        3.56459        1.30875
H          1.14243        3.15532       -0.35782
H         -0.74689        4.75055       -0.38456
H         -1.25728        3.21104       -1.05726
H         -2.47785        2.73628        0.90482
H         -1.90059        4.09006        1.68008
H          1.03503        1.16252        0.97692
H         -0.59857        1.47270        1.33533
C          0.34173        3.08582        0.38163
C         -0.96258        3.70812       -0.12637
N          0.15780        1.64168        0.66477
N         -2.09353        3.66785        0.77991
H         -0.14839        1.13215       -0.18184
