35
1sa1msa1ma1eda_67.log	Energy: -1035895.8824827
S          2.28227       -1.30409       -0.06208
O          1.02538       -2.17491       -0.40276
O          2.02078       -0.53194        1.16867
O          3.42591       -2.17367       -0.07288
O          2.34807       -0.27403       -1.23821
H          2.20393        0.71075       -0.89714
S         -2.39659       -0.69084       -0.30577
O         -3.08381        0.58146       -0.58691
O         -2.39473       -1.06931        1.13312
O         -0.99895       -0.68322       -0.85685
H          0.19582       -1.61176       -0.56425
C         -3.26985       -1.98274       -1.16507
H         -4.28913       -2.01178       -0.77951
H         -3.26433       -1.74395       -2.22865
H         -2.75815       -2.92653       -0.97578
N         -0.36236        0.54780        2.01852
H         -1.15224       -0.11629        1.84414
H          0.51325        0.05630        1.75244
C         -0.32912        1.02738        3.41215
H          0.49494        1.73044        3.53915
H         -1.27246        1.52173        3.64506
H         -0.18704        0.18086        4.08342
H         -0.48814        1.33245        1.33113
H          1.18071        4.04124       -0.96071
H          1.61107        2.96402       -2.29669
H         -0.78354        2.99308       -2.11553
H         -0.22186        1.39197       -1.61548
H         -1.06397        3.51907        0.21043
H         -1.82410        2.10819       -0.13307
H          2.97124        2.56269       -0.33635
H          1.65271        2.12388        0.51724
C          1.18717        2.99161       -1.28894
C         -0.23269        2.44943       -1.33678
N          2.04053        2.16346       -0.42158
N         -0.90156        2.54350       -0.02776
