32
1sa1msa1a1eda_217.log	Energy: -1011228.5006492
S          1.04960       -1.82428       -0.10231
O          2.48422       -1.48227        0.02249
O          0.29474       -1.82709        1.14561
O          0.42160       -1.04374       -1.19948
O          1.00749       -3.37439       -0.57263
H          1.50984       -3.45923       -1.39454
S         -2.62255        0.40304       -0.10934
O         -3.90566        0.96370       -0.47249
O         -1.56611        1.30371        0.36522
O         -2.09183       -0.39913       -1.36420
H         -1.12268       -0.65325       -1.26998
C         -2.84301       -0.86196        1.12074
H         -3.21032       -0.37153        2.02319
H         -3.57945       -1.57133        0.74307
H         -1.87726       -1.34265        1.29484
N          0.74971        0.96718        2.30753
H         -0.07085        1.24385        1.76748
H          0.69180        1.41737        3.21471
H          0.67273       -0.04105        2.43529
H          3.37362        2.97271       -0.38412
H          3.55526        1.50891       -1.37958
H          1.58949        2.64527       -2.18046
H          1.01969        1.24556       -1.27691
H          0.77223        4.02586       -0.49824
H         -0.22126        2.74424       -0.19347
H          3.74836        1.26957        1.13386
H          2.06094        1.34237        1.23880
C          2.92347        2.01082       -0.64181
C          1.50804        2.22016       -1.17054
N          2.89784        1.16780        0.58467
N          0.74691        3.04602       -0.24490
H          2.80710        0.15561        0.33479
