32
1sa1msa1a1eda_248.log	Energy: -1011227.6643296
S         -1.68390       -1.37700        0.10559
O         -2.65976       -0.64787        0.92997
O         -1.32658       -0.72840       -1.15693
O         -0.51204       -1.84733        0.89323
O         -2.43408       -2.73744       -0.38617
H         -2.69454       -3.23477        0.40071
S          2.55056       -0.22607       -0.10363
O          2.73923        0.39589        1.20460
O          1.91599        0.59656       -1.13530
O          1.84929       -1.62026        0.02031
H          0.87584       -1.62463        0.36086
C          4.12555       -0.78087       -0.71049
H          4.74559        0.10701       -0.83670
H          4.55931       -1.45475        0.02758
H          3.96950       -1.28528       -1.66345
N         -3.36200        1.65376       -0.94012
H         -4.08206        2.32491       -0.69341
H         -3.31103        0.94698       -0.19952
H         -3.67639        1.15920       -1.77036
H          1.05300        2.89466       -0.18490
H         -0.37152        3.94917       -0.41578
H         -0.10952        3.26775        1.98610
H         -1.61905        2.66480        1.29767
H          0.74634        1.03300        1.86260
H         -0.86903        0.67668        2.07464
H         -0.16264        2.06851       -2.03115
H         -0.33752        1.01103       -0.78747
C         -0.03649        2.94794       -0.13295
C         -0.52972        2.55557        1.26165
N         -0.57129        1.96675       -1.10551
N         -0.19325        1.16971        1.50625
H         -1.62939        1.98829       -1.15003
