36
1sa1msa2dma_209.log	Energy: -1025799.6216297
S         -1.29828        0.33929        0.63103
O         -2.35656        1.35605        0.79189
O         -0.16402        0.48638        1.55461
O         -1.85736       -1.03925        0.59782
O         -0.74751        0.63420       -0.85145
H         -3.48828       -0.88518        0.06074
H          0.07239        0.09856       -1.00286
S          2.50201       -1.20780       -0.19252
O          3.76852       -0.60608       -0.55781
O          1.34798       -1.04333       -1.08777
O          2.09488       -0.82693        1.28517
H          1.26938       -0.25578        1.32468
C          2.75867       -2.95563        0.01481
H          3.08932       -3.34875       -0.94703
H          3.52931       -3.09764        0.77240
H          1.81653       -3.40883        0.32124
N          1.97845        1.94891       -0.13643
C          2.37921        2.28564       -1.49022
C          2.92975        2.39328        0.86660
H          1.05954        2.32757        0.06350
H          3.29400        1.73654       -1.73558
H          1.60136        1.97149       -2.19216
H          2.57064        3.36358       -1.64008
H          3.86928        1.84687        0.73411
H          3.14966        3.47493        0.81593
H          2.54217        2.16380        1.86295
N         -4.26313       -0.23993       -0.23524
C         -5.57175       -0.65387        0.30252
C         -4.19966       -0.07149       -1.70481
H         -3.90658        0.63071        0.21260
H         -5.85624       -1.60993       -0.13908
H         -5.48824       -0.75855        1.38415
H         -6.32070        0.10126        0.05971
H         -4.43507       -1.02193       -2.18530
H         -4.91469        0.69235       -2.01317
H         -3.18551        0.23630       -1.96432
