30
1sa1msa2ma_137.log	Energy: -976477.7893263
S          1.93695       -0.73431       -0.23239
O          3.10433       -1.39298       -0.83981
O          0.66892       -1.47041       -0.35928
O          2.21627       -0.30443        1.16941
O          1.79119        0.61654       -1.08829
H          3.84438       -0.13390        1.27870
H          0.93019        1.04745       -0.86112
S         -1.87703        0.87136       -0.17467
O         -2.68470        0.77297       -1.37814
O         -0.59282        1.58262       -0.27747
O         -1.61794       -0.56074        0.44521
H         -0.72769       -0.93563        0.14822
C         -2.83308        1.59958        1.12518
H         -3.03417        2.62815        0.82258
H         -3.76561        1.02720        1.19724
H         -2.24586        1.56881        2.04225
N          4.81216       -0.15403        0.83692
H          5.52279       -0.46702        1.49316
C          5.11502        1.16213        0.22319
H          6.05692        1.10671       -0.32162
H          4.29988        1.40053       -0.46097
H          5.17249        1.91814        1.00535
H          4.64125       -0.86356        0.09958
N         -5.24311       -0.37186        0.12576
H         -6.23642       -0.23110       -0.02168
C         -4.96269       -1.76437        0.47642
H         -5.29575       -2.49846       -0.27148
H         -3.88530       -1.88563        0.61318
H         -5.44776       -2.00257        1.42771
H         -4.76885       -0.12318       -0.73867
