28
1sa1msa1eda_40.log	Energy: -975730.9204905
S          2.13680       -0.84005       -0.08695
O          3.09558        0.10538       -0.64742
O          1.66788       -0.54429        1.27971
O          1.00180       -1.11350       -1.01519
O          2.90595       -2.25375        0.10937
H          3.42079       -2.42421       -0.69124
S         -2.23081       -0.61312        0.00192
O         -2.42478        0.15973       -1.22233
O         -1.80013        0.13616        1.18443
O         -1.28960       -1.83893       -0.25109
H         -0.33896       -1.55908       -0.53838
C         -3.72544       -1.48617        0.39383
H         -4.48357       -0.73255        0.60832
H         -4.00881       -2.08716       -0.46968
H         -3.53924       -2.11001        1.26739
H          1.12459        3.68530        0.68108
H          2.17014        2.27299        0.32847
H          0.87879        2.97489       -1.70216
H          0.42908        1.35745       -1.18780
H         -1.22617        3.72347       -1.03959
H         -1.66061        2.12716       -1.12376
H          0.59098        2.23350        2.39379
H         -0.57210        1.84897        1.25286
C          1.14065        2.63027        0.39730
C          0.37354        2.41440       -0.90756
N          0.44102        1.85388        1.46254
N         -1.01942        2.79234       -0.70225
H          0.78185        0.85907        1.45802
