33
1sa1msa1ma1dma_125.log	Energy: -1001151.3769210
S          1.46506        1.01994       -0.72105
O          0.29220        0.36811       -1.41356
O          2.75101        0.59186       -1.24727
O          1.23946        2.48306       -0.66674
O          1.35268        0.55036        0.79626
H         -0.28157        2.72363       -0.19957
H          1.78024       -0.40558        0.90706
S         -2.54082       -0.89322       -0.16887
O         -3.34757       -0.90193       -1.37547
O         -2.51493        0.37046        0.59757
O         -1.08528       -1.37842       -0.42383
H         -0.45164       -0.61620       -0.85923
C         -3.11294       -2.16503        0.93235
H         -4.15418       -1.93975        1.16434
H         -3.03490       -3.12120        0.41522
H         -2.50039       -2.15088        1.83314
N         -1.19922        2.75472        0.33487
H         -1.80036        3.47952       -0.04978
C         -0.90013        2.97008        1.77048
H         -1.82190        2.91003        2.34862
H         -0.20882        2.18524        2.07664
H         -0.42715        3.94331        1.89900
H         -1.67694        1.83629        0.22400
N          2.48195       -1.77482        0.99081
C          3.92299       -1.50801        1.07272
C          2.12203       -2.56388       -0.19534
H          2.18189       -2.27172        1.82471
H          4.20271       -0.87665        0.22604
H          4.13913       -0.96453        1.99537
H          4.51651       -2.43196        1.04974
H          2.38473       -1.98866       -1.08661
H          2.64949       -3.52679       -0.22410
H          1.04405       -2.73790       -0.20271
