39
1sa1msa1dma1tma_36.log	Energy: -1050476.5192114
S         -0.07061       -1.83750        0.38718
O          0.38326       -0.80058       -0.65917
O         -0.64756       -3.00223       -0.26544
O          1.02426       -2.06121        1.33270
O         -1.20708       -1.08326        1.19375
H         -2.03340       -0.88446        0.56386
S         -0.22129        2.49057        0.01506
O         -0.68737        3.77713       -0.45897
O          1.21722        2.25151        0.14450
O         -0.83571        1.38467       -0.93555
H         -0.34260        0.48442       -0.82713
C         -0.97448        2.13520        1.58872
H         -0.54021        2.82068        2.31743
H         -2.04632        2.31238        1.49394
H         -0.77477        1.09212        1.84289
N         -3.17873       -0.47780       -0.36377
C         -4.46250       -0.51290        0.33657
C         -3.15548       -1.32230       -1.56420
H         -2.95295        0.47709       -0.63492
H         -4.63671       -1.52569        0.70949
H         -4.43211        0.16544        1.19274
H         -5.30095       -0.22960       -0.31402
H         -3.25776       -2.36838       -1.26790
H         -3.95943       -1.05930       -2.26447
H         -2.18947       -1.21282       -2.06010
N          3.01563       -0.37909       -0.29585
C          3.54442       -1.74256       -0.55006
H          3.13318       -2.41291        0.20460
H          3.21584       -2.06571       -1.53849
H          4.63560       -1.71672       -0.50315
C          3.45622        0.58932       -1.32914
H          3.15198        0.21563       -2.30764
H          2.97228        1.54563       -1.13264
H          4.54361        0.68668       -1.28744
C          3.33730        0.08371        1.07850
H          2.88313        1.06347        1.22080
H          2.90669       -0.63159        1.77897
H          4.42321        0.13891        1.18808
H          1.96409       -0.45730       -0.37029
