23
1sa1msa1ma_23.log	Energy: -916334.8462460
S         -2.02647       -0.71625        0.13059
O         -2.92020       -1.73905        0.63201
O         -1.05296       -0.11852        1.05249
O         -0.98623       -1.52665       -0.91659
O         -2.65617        0.30832       -0.73924
H         -1.45480       -2.26838       -1.32106
H         -1.60759        1.56438       -0.84094
S          2.34277       -0.14160       -0.07377
O          1.60985        1.05123       -0.52202
O          3.75802       -0.21262       -0.34814
O          1.68424       -1.42996       -0.72386
H          0.69268       -1.39873       -0.75276
C          2.04480       -0.35925        1.66390
H          2.47895        0.50366        2.17062
H          0.96526       -0.41375        1.81949
H          2.54650       -1.27685        1.97097
N         -0.84239        2.28466       -0.71437
H          0.05316        1.75998       -0.65663
C         -1.06914        3.03992        0.54135
H         -0.25611        3.74966        0.69300
H         -2.02328        3.56236        0.47873
H         -1.09795        2.31133        1.35060
H         -0.80724        2.89318       -1.52916
