38
1sa1msa1dma1eda_249.log	Energy: -1060546.3006207
S         -0.29489        0.16250        0.10670
O         -0.10218        1.54815       -0.33266
O         -1.19600       -0.62572       -0.76889
O          0.99161       -0.53281        0.36461
O         -0.98077        0.18380        1.55460
H         -1.93414        0.41908        1.45008
S         -4.35832       -0.09509       -0.02050
O         -5.75121        0.22875       -0.22586
O         -3.62242        0.60045        1.04239
O         -3.61035        0.11768       -1.39870
H         -2.62955       -0.05810       -1.26781
C         -4.17254       -1.84364        0.26398
H         -4.64214       -2.06650        1.22257
H         -4.67161       -2.37395       -0.54688
H         -3.10473       -2.06862        0.28685
N          2.95641        1.32520       -0.02048
C          2.86437        1.72732       -1.44147
C          2.74324        2.42984        0.93746
H          2.22547        0.59238        0.14974
H          3.62782        2.47870       -1.65442
H          3.02828        0.83427       -2.04644
H          1.86539        2.12426       -1.62378
H          3.50351        3.19790        0.78252
H          1.74375        2.83610        0.77845
H          2.81843        2.03201        1.95002
H          3.88717        0.86809        0.13149
H          6.00143       -2.15880       -0.02036
H          5.65209       -1.42919        1.55119
H          3.84377       -2.97033        0.77867
H          3.27372       -1.34153        1.09960
H          3.59654       -2.53825       -1.52897
H          2.34630       -1.68589       -0.88882
H          6.37871        0.29117        0.13961
H          5.36265       -0.15544       -1.06290
C          5.34063       -1.45170        0.50233
C          3.89360       -1.93266        0.41886
N          5.45912       -0.09271       -0.05219
N          3.36064       -1.75297       -0.93168
