33
1sa1msa1a1tma_61.log	Energy: -1001151.0449434
S         -0.56533       -1.42406        0.13495
O         -1.64128       -2.29375        0.58227
O          0.70591       -2.10009       -0.20464
O         -0.97418       -0.45968       -0.92793
O         -0.24590       -0.49678        1.42937
H         -1.98167        0.65288       -0.34888
H          0.59486       -0.01157        1.25532
S          3.14675        0.32429        0.01264
O          4.17872       -0.08175        0.94396
O          1.91000        0.90073        0.57309
O          2.76896       -0.83160       -0.98080
H          1.93362       -1.34813       -0.68578
C          3.82321        1.49853       -1.13557
H          4.67655        1.03280       -1.62835
H          3.05183        1.76758       -1.85586
H          4.14266        2.36486       -0.55554
N         -4.04882       -1.25124       -1.01787
H         -3.42327       -1.77202       -0.40055
H         -3.61016       -1.29453       -1.93359
H         -4.91716       -1.77346       -1.08165
N         -2.47872        1.49198        0.07253
C         -3.43992        1.99369       -0.93806
H         -2.89053        2.26271       -1.84136
H         -4.14076        1.18529       -1.15285
H         -3.95405        2.87105       -0.53808
C         -3.17246        1.02614        1.30135
H         -3.90632        0.27834        1.00155
H         -2.43259        0.57786        1.96480
H         -3.65629        1.88138        1.77972
C         -1.41710        2.48143        0.37561
H         -0.72339        2.04366        1.09183
H         -0.88011        2.71243       -0.54450
H         -1.87350        3.38455        0.78725
