30
1sa1msa2ma_127.log	Energy: -976481.3903458
S          1.09224       -1.50319       -0.18365
O          2.54739       -1.54261       -0.31216
O          0.38478       -2.76387       -0.01305
O          0.62363       -0.46522        0.80164
O          0.63057       -0.87365       -1.62685
H          0.70206        1.06375        0.23876
H         -0.33604       -0.75277       -1.60219
S         -2.75235        0.21765        0.11470
O         -2.00342        0.11176       -1.12651
O         -4.17763        0.48730        0.08501
O         -2.06123        1.46153        0.92366
H         -2.77170        1.95468        1.35848
C         -2.39091       -1.16456        1.16066
H         -2.68546       -2.06043        0.61201
H         -1.31336       -1.16748        1.34442
H         -2.97425       -1.05366        2.07470
N          1.03629        2.00707       -0.10434
H          0.74136        2.70879        0.56940
C          0.54828        2.31006       -1.46676
H          0.91102        3.29089       -1.77742
H          0.92738        1.53801       -2.13526
H         -0.54099        2.28171       -1.47883
H          2.10623        1.88361       -0.08346
N          3.63279        1.16518        0.07856
H          3.46619        0.24076       -0.33178
C          3.84177        0.98069        1.52248
H          4.70276        0.34495        1.75573
H          3.98255        1.95248        2.00553
H          2.95087        0.50393        1.93945
H          4.46197        1.55470       -0.35806
