41
1sa1msa1tma1eda_127.log	Energy: -1085210.1127035
S          0.07673        1.78095       -0.00612
O         -0.22098        0.76580       -1.19402
O         -0.02191        1.03725        1.25702
O          1.44535        2.32326       -0.23718
O         -0.97072        2.81370       -0.19351
H          2.55850        1.22549       -0.05638
H         -2.33205        2.12702       -0.71003
S         -0.15500       -2.55117       -0.22665
O          0.35811       -3.89093       -0.50614
O         -1.52392       -2.25133       -0.68630
O          0.81244       -1.47011       -0.68938
H          0.17903       -0.16744       -0.99874
C         -0.18504       -2.35321        1.55588
H         -0.95915       -3.01134        1.95292
H          0.78744       -2.64588        1.95582
H         -0.39454       -1.30490        1.77814
H         -4.20719       -0.15658       -1.26618
H         -2.42041       -0.22619       -1.27449
H         -3.36108       -1.10946        0.86029
H         -2.32808        0.29690        1.10944
H         -5.23252        0.23409        1.36321
H         -4.12599        1.03595        2.26031
H         -3.46207        1.97826       -1.95640
H         -3.97939        2.08589       -0.35778
C         -3.29219        0.22313       -0.80273
C         -3.28846       -0.03015        0.69881
N         -3.26767        1.70445       -0.99676
N         -4.36507        0.75725        1.31655
N          3.40126        0.59498        0.11631
C          3.64955       -0.18836       -1.12173
H          2.79290       -0.84321       -1.29421
H          3.77038        0.50818       -1.95233
H          4.55931       -0.77948       -0.99058
C          4.51683        1.51442        0.43072
H          4.67318        2.18242       -0.41691
H          4.24881        2.10411        1.30790
H          5.42300        0.93643        0.62672
C          3.05750       -0.28355        1.26358
H          2.75266        0.34301        2.10198
H          2.22371       -0.91372        0.95365
H          3.93031       -0.88768        1.52417
