40
1sa1msa2eda_286.log	Energy: -1095271.2002891
S          0.14950       -0.06443       -0.95741
O         -1.20384       -0.53980       -1.22373
O          1.22863       -0.89639       -1.52375
O          0.34180        1.38172       -1.26232
O          0.26639       -0.17054        0.65148
H         -0.47459        2.28752       -0.27340
H          1.20999       -0.03605        0.91140
S          4.00167       -0.40479        0.42293
O          4.36957       -1.70330        0.94918
O          2.89669        0.31198        1.08278
O          3.72233       -0.46065       -1.12601
H          2.73669       -0.62501       -1.32123
C          5.42496        0.65669        0.42533
H          5.72424        0.78178        1.46628
H          6.21332        0.16476       -0.14419
H          5.15032        1.61069       -0.02264
H         -2.90271        3.96179        0.13828
H         -2.30736        3.20551       -1.36526
H         -4.29145        1.96859       -0.25027
H         -2.85689        0.97175       -0.53941
H         -3.82571        1.85654        2.03556
H         -2.97475        0.48471        1.60159
H         -0.63298        3.76214        0.55831
H         -1.32733        2.36641        1.22242
C         -2.43857        3.06986       -0.29080
C         -3.24902        1.80831        0.04780
N         -1.10645        2.88865        0.34539
N         -3.06877        1.50393        1.46219
H         -3.63933       -3.29923        0.99056
H         -4.49653       -2.17524        2.06608
H         -5.62405       -2.22445       -0.04046
H         -4.85754       -0.63923        0.14637
H         -4.54434       -1.75260       -2.07382
H         -3.08766       -1.51175       -1.36419
H         -2.14234       -1.79321        2.20200
H         -2.03076       -1.46569        0.61718
C         -3.86607       -2.23889        1.17147
C         -4.65546       -1.71277       -0.02111
N         -2.66648       -1.42994        1.41263
N         -3.97324       -2.00202       -1.27546
