24
1sa1msa2a_40.log	Energy: -927174.8703151
S         -1.17404       -1.06920       -0.13662
O         -0.84918       -0.16840        1.03058
O         -0.23802       -2.17265       -0.26575
O         -2.60912       -1.38534       -0.15983
O         -0.99008       -0.11202       -1.43423
H         -0.04796        0.18758       -1.44524
S          2.45085        0.46424        0.04672
O          3.62450        1.28976        0.21534
O          1.53393        0.77162       -1.06187
O          1.63817        0.50657        1.40443
H          0.68074        0.21737        1.27341
C          2.92291       -1.24300       -0.09626
H          3.49286       -1.33878       -1.02124
H          3.53945       -1.49349        0.76687
H          2.01241       -1.84552       -0.13293
N         -3.41207        0.74956        1.31572
H         -2.48541        0.65083        1.75476
H         -3.30416        1.48479        0.54041
H         -3.53252       -0.16326        0.83418
H         -4.14895        0.95474        1.98232
N         -2.76677        2.30459       -0.86342
H         -2.15924        3.10064       -0.69180
H         -3.45575        2.59192       -1.55161
H         -2.18772        1.57515       -1.28872
