33
1sa1msa1a1tma_47.log	Energy: -1001154.7371464
S          0.45355        1.48893        0.27948
O          0.51867        0.26312       -0.62711
O         -0.18122        1.12243        1.55013
O          1.75630        2.13530        0.35301
O         -0.49964        2.50673       -0.48748
H         -1.36095        2.05556       -0.65030
S         -2.88315       -0.48830       -0.38676
O         -3.95058       -1.28815       -0.94282
O         -2.69012        0.88196       -0.87377
O         -1.52496       -1.28723       -0.58807
H         -0.73260       -0.65259       -0.63043
C         -3.05061       -0.42067        1.38216
H         -3.97724        0.11547        1.59126
H         -3.10733       -1.44285        1.75686
H         -2.18673        0.11427        1.78182
N          0.64668       -1.93393        1.68650
H          0.59028       -2.46075        2.55258
H         -0.09138       -2.27997        1.07813
H          0.39651       -0.96769        1.90046
N          2.99622       -0.74448       -0.41297
C          3.00528       -2.18448       -0.76270
H          2.44891       -2.71438        0.01166
H          2.51569       -2.31511       -1.72862
H          4.03818       -2.53618       -0.81695
C          3.63501        0.10466       -1.44917
H          3.14176       -0.07767       -2.40422
H          3.49442        1.14770       -1.16372
H          4.69614       -0.14513       -1.51665
C          3.57541       -0.50037        0.93391
H          3.45301        0.55760        1.16740
H          3.01719       -1.10811        1.64604
H          4.63185       -0.77884        0.91934
H          1.98738       -0.44055       -0.38902
