33
1sa1msa1ma1dma_136.log	Energy: -1001152.5127696
S          0.42186        0.24151       -0.92059
O          1.63556        0.89375       -1.40500
O         -0.78845        0.46666       -1.73721
O          0.62592       -1.19281       -0.58831
O          0.14849        0.98337        0.49756
H          2.22291       -1.31358       -0.08638
H         -0.74014        0.71456        0.83461
S         -3.51165        0.02457        0.34959
O         -4.38252        1.18245        0.33570
O         -2.30590        0.08187        1.19160
O         -3.10434       -0.40736       -1.10807
H         -2.17677       -0.07208       -1.36829
C         -4.44872       -1.40541        0.83208
H         -4.83058       -1.21450        1.83532
H         -5.26938       -1.52416        0.12474
H         -3.78841       -2.27173        0.82009
N          3.01799        1.29579        1.46627
H          2.01248        1.42193        1.33767
C          3.74435        2.30273        0.67797
H          3.52562        3.33169        0.98517
H          4.82116        2.13427        0.77133
H          3.45540        2.18853       -0.36836
H          3.20827        1.41299        2.45677
N          3.21109       -1.19297        0.25195
C          4.10882       -1.09925       -0.91668
C          3.54907       -2.26378        1.20448
H          3.19844       -0.24891        0.76287
H          4.11021       -2.05003       -1.45307
H          3.72701       -0.31022       -1.56515
H          5.12068       -0.86429       -0.57952
H          3.51590       -3.23096        0.69978
H          4.54941       -2.09475        1.60844
H          2.81975       -2.25487        2.01520
