32
1sa1msa1a1eda_234.log	Energy: -1011227.0369896
S          0.13737       -1.66423        0.03569
O         -0.18199       -1.43896        1.44714
O          0.14867       -0.36412       -0.73130
O          1.37670       -2.41141       -0.22099
O         -1.02403       -2.54435       -0.60923
H         -1.85886       -2.03736       -0.49744
S         -3.02923        0.78886       -0.00512
O         -3.58037        1.23092        1.25881
O         -3.03747       -0.64141       -0.32849
O         -1.56333        1.34717       -0.16115
H         -0.88064        0.60024       -0.41172
C         -3.87877        1.63667       -1.32027
H         -4.92638        1.33765       -1.27242
H         -3.77797        2.70911       -1.15440
H         -3.43253        1.34012       -2.26908
N          1.18066        1.14737        1.89280
H          0.60793        1.78608        1.34622
H          1.38090        1.60274        2.77767
H          0.57664        0.34160        2.08102
H          3.74403       -0.28256       -1.62678
H          2.23095        0.59696       -1.35223
H          4.15377        2.18563       -1.72676
H          3.47647        2.36328       -0.10507
H          5.98393        1.00124       -0.75889
H          5.71235        2.16540        0.35494
H          2.62367       -1.19772        0.22913
H          3.98012       -0.33220        0.80385
C          3.22969        0.41007       -0.95479
C          4.03735        1.68540       -0.75653
N          3.06347       -0.26236        0.35590
N          5.30223        1.35701       -0.09677
H          2.41572        0.31599        0.98048
