24
1sa1msa2a_47.log	Energy: -927173.8727319
S          1.12046       -0.81027       -0.24515
O          2.47912       -1.25397       -0.55305
O          0.03602       -1.73029       -0.62073
O          0.98730       -0.32818        1.16349
O          0.94280        0.51161       -1.16534
H          2.56282        0.08649        1.63102
H          0.01245        0.83311       -1.06680
S         -2.65348        0.37443        0.00943
O         -4.03723        0.75299       -0.15571
O         -1.61983        1.17915       -0.65781
O         -2.51252       -1.13129       -0.45233
H         -1.54768       -1.39139       -0.54227
C         -2.24649        0.31060        1.74003
H         -2.36506        1.32149        2.13241
H         -2.94394       -0.37394        2.22263
H         -1.21140       -0.02605        1.83754
N          3.65316        1.80639       -0.72586
H          3.76484        2.81532       -0.73721
H          2.70450        1.58926       -1.04225
H          4.28106        1.42139       -1.42590
N          3.60382        0.21049        1.52104
H          3.73950        0.92236        0.72400
H          3.94205       -0.68999        1.17999
H          4.06387        0.48344        2.38391
