33
1sa1msa1ma1dma_31.log	Energy: -1001157.7480560
S          1.28215        0.38138        0.91169
O          0.40133        1.23152        1.72418
O          0.65162       -1.08005        0.83682
O          1.41245        0.85521       -0.48932
O          2.61434        0.12564        1.52869
H         -0.60698        1.55387       -0.99285
H          3.49771       -0.51857        0.46686
S         -2.89577       -0.85841       -0.30700
O         -3.68131       -1.73377       -1.16719
O         -3.39453        0.55261       -0.22601
O         -1.42538       -0.83924       -0.63116
H         -0.20236       -1.04626        0.29027
C         -3.00103       -1.49537        1.36089
H         -4.04848       -1.47065        1.66259
H         -2.62939       -2.52075        1.35729
H         -2.39434       -0.86838        2.01607
N         -1.23794        2.10020       -0.39670
H         -2.15162        1.56014       -0.34442
C         -1.40798        3.48440       -0.87087
H         -2.04828        4.02400       -0.17344
H         -0.43561        3.97360       -0.93195
H         -1.87964        3.46991       -1.85328
H         -0.78802        2.04304        0.53271
N          4.05626       -0.90800       -0.37709
C          4.48813        0.25155       -1.19571
C          3.18987       -1.86534       -1.11310
H          4.86850       -1.39575       -0.00225
H          3.58720        0.80115       -1.47199
H          5.13110        0.88877       -0.58844
H          5.02303       -0.09881       -2.08024
H          2.32217       -1.31583       -1.47811
H          3.74930       -2.30313       -1.94172
H          2.85325       -2.63624       -0.42095
