32
1sa1msa1a1eda_257.log	Energy: -1011227.6525011
S          0.38441       -0.66958       -0.16965
O          0.74537       -0.05891        1.11530
O         -0.41827        0.26840       -1.01809
O          1.54110       -1.21585       -0.90685
O         -0.53827       -1.94097        0.09822
H         -1.38948       -1.64382        0.50018
S         -3.62419        0.16624        0.21831
O         -3.78665        1.41945        0.92910
O         -2.93385       -0.93014        0.91187
O         -2.95180        0.38597       -1.19144
H         -1.93295        0.33662       -1.12844
C         -5.21617       -0.41977       -0.30820
H         -5.79996       -0.59494        0.59594
H         -5.67906        0.35291       -0.92156
H         -5.07886       -1.34355       -0.86873
N          1.28838        2.65054       -0.14660
H          1.24148        3.65857       -0.24978
H          0.98979        2.40949        0.79654
H          0.57848        2.23132       -0.74914
H          4.35543        1.31440        1.27441
H          3.06421        0.09694        1.45319
H          5.34220       -0.96764        1.61336
H          4.42772       -1.55974        0.22345
H          6.66897        0.31740        0.12718
H          6.39618       -1.01006       -0.78617
H          2.69725        1.63226       -0.42160
H          4.13070        0.95488       -1.13438
C          3.90187        0.42194        0.83285
C          4.93338       -0.68133        0.63617
N          3.35103        0.79667       -0.49143
N          5.94423       -0.23069       -0.32372
H          2.76328        0.00386       -0.84054
