33
1sa1msa1a1tma_17.log	Energy: -1001161.0013412
S         -3.10968       -0.44287       -0.11782
O         -4.22109       -0.02625       -0.95525
O         -3.16185       -1.80734        0.42290
O         -1.75114       -0.13058       -0.65977
O         -3.12554        0.56788        1.19118
H         -4.03438        0.60372        1.51693
S          2.61269       -0.89920       -0.09271
O          1.83912       -0.87428        1.18108
O          2.59649        0.44151       -0.75429
O          2.20496       -2.00081       -0.98873
C          4.31753       -1.19583        0.33612
H          4.90182       -1.18724       -0.58418
H          4.64752       -0.40730        1.01252
H          4.37972       -2.16994        0.82132
N         -0.33048       -2.28362        0.10756
H          0.34665       -2.66325       -0.56302
H          0.23576       -1.95782        0.90396
H         -0.80369       -1.43549       -0.30232
H         -1.07505       -2.92413        0.37839
N          0.75750        2.23027       -0.04152
C          1.75526        3.30163        0.18463
H          2.45024        2.97446        0.95790
H          2.30258        3.47276       -0.74246
H          1.24194        4.21385        0.49634
C         -0.18334        2.56914       -1.14114
H          0.39138        2.72676       -2.05458
H         -0.88326        1.74116       -1.26597
H         -0.72335        3.48066       -0.87422
C          0.04188        1.87022        1.21138
H         -0.71145        1.12030        0.97668
H          0.76686        1.46391        1.91673
H         -0.43990        2.76528        1.61114
H          1.33358        1.39679       -0.34191
