30
1sa1msa2ma_76.log	Energy: -976491.5719254
S         -1.41759       -0.20177       -0.18374
O         -1.73766       -1.58097        0.16414
O         -0.14201       -0.01607       -0.94711
O         -2.51881        0.32421       -1.19729
O         -1.42537        0.73525        0.97817
H         -3.41321       -0.12238       -0.95112
H         -0.14594        1.69755        0.89166
S          2.95234       -0.54770        0.18704
O          2.74375       -0.94278        1.56827
O          2.90059        0.90248       -0.08945
O          1.99611       -1.30161       -0.79421
H          1.06401       -0.85057       -0.84457
C          4.51381       -1.16438       -0.38745
H          4.51088       -2.24751       -0.26621
H          4.63771       -0.88426       -1.43268
H          5.28414       -0.70993        0.23602
N          0.65314        2.36100        0.65757
H          0.84120        2.95427        1.46220
C          0.28497        3.14578       -0.54498
H          1.09381        3.82943       -0.80258
H          0.11652        2.43392       -1.35243
H         -0.63398        3.69634       -0.34523
H          1.49970        1.78915        0.45991
N         -4.63649       -0.97572       -0.32564
H         -5.45601       -1.14766       -0.89828
C         -5.00093       -0.40337        0.97737
H         -5.66431       -1.04803        1.56538
H         -4.08511       -0.22775        1.54621
H         -5.49144        0.56022        0.82105
H         -4.15041       -1.86047       -0.19537
