38
1sa1msa1dma1eda_279.log	Energy: -1060544.6091250
S          1.79213       -1.72272       -0.30557
O          2.88357       -0.80593        0.02379
O          2.05595       -3.15008       -0.28924
O          0.55310       -1.33480        0.45904
O          1.42642       -1.34180       -1.85614
H          1.15744       -2.15290       -2.30743
S         -2.61202       -0.38953        0.08766
O         -2.91841        0.36946       -1.11457
O         -1.92820        0.30937        1.17980
O         -1.81701       -1.69732       -0.26688
H         -0.82654       -1.61356        0.01037
C         -4.12401       -1.08682        0.70912
H         -4.78409       -0.25507        0.95701
H         -4.56119       -1.70289       -0.07657
H         -3.89387       -1.68150        1.59251
N          0.86258        1.14125        1.85680
C         -0.02696        2.13821        2.48155
C          1.86009        0.55731        2.77951
H          0.31339        0.37460        1.43653
H          0.57751        2.97375        2.83997
H         -0.74926        2.47794        1.74113
H         -0.56365        1.67875        3.31226
H          2.45876        1.36353        3.20796
H          1.34619        0.01436        3.57425
H          2.49504       -0.11867        2.20678
H          1.38261        1.58999        1.03266
H         -0.44493        1.96889       -0.48550
H          0.23078        0.75761       -1.57939
H          1.85177        2.43762       -2.44756
H          1.20472        3.64005       -1.32292
H          2.60552        1.16152       -0.57355
H          3.03604        2.70184       -0.25252
H         -1.61606        1.68070       -2.61842
H         -1.10169        3.21643       -2.44333
C          0.04293        1.82976       -1.46474
C          1.37750        2.56672       -1.46749
N         -0.78416        2.26184       -2.58229
N          2.23289        2.09129       -0.36477
