35
1sa1msa1ma1eda_117.log	Energy: -1035887.5274138
S         -1.20408       -0.92020       -0.20886
O          0.03898       -0.65953       -0.99786
O         -1.47362       -2.32073        0.09256
O         -1.24156       -0.02292        0.97955
O         -2.34626       -0.39635       -1.19333
H         -0.10526        1.17483        0.81346
H         -3.21786       -0.86194       -0.92555
S          3.17978       -0.56142        0.21779
O          2.92892       -0.87066        1.61446
O          2.97675        0.84384       -0.18324
O          2.38523       -1.50716       -0.74432
H          1.39082       -1.23618       -0.81763
C          4.83613       -1.02614       -0.21760
H          4.95803       -2.08758       -0.00304
H          4.99074       -0.81685       -1.27535
H          5.50401       -0.42764        0.40236
N         -4.40198       -1.76913       -0.23627
H         -5.24879       -1.96696       -0.75848
C         -4.70534       -1.22469        1.09386
H         -5.32429       -1.89020        1.70698
H         -3.76332       -1.03937        1.61502
H         -5.22262       -0.26873        0.98017
H         -3.87595       -2.63601       -0.14659
H          0.70747        3.25242       -1.14311
H         -0.06220        1.68067       -1.48009
H         -1.76928        3.52567       -1.46421
H         -2.05414        2.34513       -0.18227
H         -0.96449        5.03827        0.17135
H         -2.12595        4.27327        1.03200
H          1.47856        1.62437        0.39891
H          0.44976        2.71693        1.21161
C         -0.00787        2.51127       -0.77522
C         -1.37397        3.13271       -0.51911
N          0.51081        1.97606        0.50864
N         -1.25134        4.13808        0.54010
