27
1sa1msa1a1ma_53.log	Energy: -951833.9918274
S          1.60571       -1.35730       -0.02577
O          0.69248       -2.49585       -0.03891
O          1.08356       -0.20437       -0.82873
O          2.10951       -0.91300        1.27952
O          2.95471       -1.82600       -0.79263
H          2.69625       -2.40852       -1.51962
S         -2.37159       -0.03056       -0.01770
O         -3.62821        0.63745       -0.27366
O         -1.72656        0.16561        1.28829
O         -1.36876        0.41921       -1.15724
H         -0.42141        0.08498       -1.00476
C         -2.53368       -1.78094       -0.26817
H         -3.21673       -2.14844        0.49858
H         -2.94962       -1.93820       -1.26328
H         -1.54491       -2.23591       -0.16474
N          0.69155        1.36456        1.93922
H          1.33731        0.55293        1.83630
H         -0.27064        0.99041        1.86424
H          0.83010        1.83549        2.82777
H          0.83683        2.01978        1.10039
N          0.96996        2.72140       -0.45106
H          1.40770        1.92123       -0.90721
C          1.72659        3.95409       -0.68980
H          1.84777        4.19150       -1.75314
H          1.22216        4.79308       -0.20411
H          2.72047        3.85671       -0.24576
H          0.03704        2.78588       -0.85149
