27
1sa1msa1a1ma_78.log	Energy: -951833.9724311
S         -1.75022       -1.02347       -0.09000
O         -1.42081        0.05450       -1.02451
O         -0.68659       -2.04635        0.04648
O         -2.26011       -0.56273        1.21796
O         -2.98024       -1.79137       -0.80834
H         -3.20301       -2.57053       -0.28038
S          2.34986       -0.31832        0.06166
O          3.78752       -0.33355        0.20706
O          1.60524        0.78714        0.68475
O          1.80628       -1.69175        0.61342
H          0.81652       -1.80286        0.45076
C          1.89796       -0.34259       -1.65883
H          2.30488        0.56598       -2.10483
H          2.34650       -1.22642       -2.11215
H          0.80767       -0.35764       -1.73269
N         -0.71535        1.58678        1.96385
H          0.22997        1.26275        1.69849
H         -1.35082        0.76373        1.91664
H         -0.71325        2.00894        2.88673
H         -1.04572        2.26401        1.19049
N         -1.44591        2.91108       -0.30970
H         -1.79144        2.04556       -0.72953
C         -0.21055        3.31553       -0.99497
H         -0.34487        3.46862       -2.07183
H          0.16860        4.24147       -0.55466
H          0.54109        2.53702       -0.84209
H         -2.16626        3.61826       -0.41235
