42
1sa1msa2tma_40.log	Energy: -1075128.9734670
S          0.01569       -1.79150        0.60760
O         -0.38508       -0.76575       -0.40365
O          0.83258       -1.15945        1.67562
O         -1.10128       -2.59779        1.08248
O          0.97823       -2.80564       -0.16592
H          1.75385       -2.28726       -0.48071
S          3.07512        0.40740       -0.46774
O          2.57531        1.34883       -1.45104
O          2.99436       -1.02754       -0.76777
O          2.42336        0.68596        0.93902
H          1.78690       -0.06241        1.23264
C          4.77539        0.79269       -0.12033
H          5.32586        0.67321       -1.05394
H          4.82739        1.82427        0.22753
H          5.13840        0.10103        0.63901
N         -2.99692       -0.65806       -0.70737
C         -3.38695        0.40764       -1.65863
H         -3.09573        1.36134       -1.21494
H         -2.85618        0.25203       -2.59864
H         -4.46608        0.36347       -1.82579
C         -3.28375       -2.01818       -1.22507
H         -2.77216       -2.14332       -2.18001
H         -2.89547       -2.74263       -0.50815
H         -4.36208       -2.13419       -1.35747
C         -3.59099       -0.44176        0.63525
H         -3.17772       -1.18883        1.31418
H         -3.31295        0.56177        0.95926
H         -4.67713       -0.54045        0.56437
H         -1.94091       -0.61309       -0.58362
N         -1.65331        2.41613        0.37405
C         -0.61913        2.52180       -0.65173
H         -0.11022        1.56349       -0.76781
H         -1.07462        2.79712       -1.60957
H          0.13772        3.28545       -0.40169
C         -2.36837        3.67335        0.52027
H         -2.83644        3.95049       -0.43048
H         -3.15587        3.57175        1.27447
H         -1.70453        4.50299        0.82739
C         -1.06556        2.00394        1.64324
H         -1.84871        1.89931        2.40233
H         -0.56309        1.04235        1.52440
H         -0.32524        2.73525        2.01480
