33
1sa1msa1ma1dma_175.log	Energy: -1001149.0617437
S         -2.03763        0.75739       -0.55594
O         -2.53140       -0.11506        0.52513
O         -1.72650        2.13645       -0.19767
O         -0.94617        0.07860       -1.31429
O         -3.29885        0.81502       -1.57342
H         -3.18405        1.58507       -2.14692
S          2.49732       -0.01477       -0.59288
O          3.64745       -0.54192       -1.29420
O          1.71453       -0.94878        0.23975
O          1.53386        0.65542       -1.64570
H          0.55380        0.49653       -1.46034
C          2.99010        1.34741        0.42829
H          3.70810        0.95529        1.15035
H          3.46772        2.08129       -0.22165
H          2.11131        1.76880        0.93606
N          0.30309        2.27448        2.09916
H          0.16408        3.00973        2.78347
C          0.00823        0.96879        2.68704
H         -1.05460        0.80081        2.91087
H          0.33983        0.19011        1.99138
H          0.58510        0.84172        3.60837
H         -0.34407        2.45762        1.33420
N         -0.72097       -2.16609        0.54663
C         -0.55256       -2.85379        1.84218
C         -1.05716       -3.05480       -0.58727
H         -1.45995       -1.42851        0.62273
H          0.25814       -3.57923        1.76323
H         -0.30706       -2.11119        2.60127
H         -1.48316       -3.35825        2.10593
H         -0.26166       -3.79025       -0.71587
H         -2.00407       -3.55566       -0.38112
H         -1.14801       -2.43535       -1.47904
H          0.15364       -1.65271        0.31940
