26
1sa1msa1dma_51.log	Energy: -940989.6051493
S         -2.27263       -0.81598       -0.10727
O         -2.68306        0.48287        0.50097
O         -3.36487       -1.57780       -0.68630
O         -1.04817       -0.65154       -0.91041
O         -1.71593       -1.71714        1.15786
H         -2.48146       -2.13667        1.57170
S          2.53750       -0.43314        0.13178
O          1.80473        0.65938        0.76050
O          3.90819       -0.69517        0.52799
O          2.54562       -0.08656       -1.45406
H          3.41865       -0.30751       -1.80947
C          1.55977       -1.90544        0.19221
H          1.40608       -2.13622        1.24728
H          0.60217       -1.69210       -0.29389
H          2.11530       -2.70001       -0.30599
N         -0.56711        2.06026        0.11973
C         -0.51807        2.43637       -1.31008
C         -0.49283        3.19520        1.05989
H         -1.44756        1.49434        0.29727
H          0.41963        2.95567       -1.51506
H         -0.58270        1.51774       -1.89277
H         -1.36590        3.08468       -1.53599
H          0.45495        3.71865        0.92523
H         -1.32583        3.87324        0.86901
H         -0.55965        2.81001        2.07725
H          0.21292        1.41303        0.31079
