36
1sa1msa2dma_01.log	Energy: -1025835.8566808
S         -1.98620       -0.95942       -0.57672
O         -1.36181        0.10366       -1.62808
O         -1.54411       -0.44558        0.76582
O         -3.41382       -0.90180       -0.80321
O         -1.31355       -2.25379       -0.84306
H          0.05907       -2.23656        0.09079
S          1.94675        0.91677       -0.42115
O          1.95307        0.36027        0.96139
O          1.32592        2.26286       -0.49464
O          1.36453       -0.05282       -1.38817
H         -0.37791        0.01043       -1.64857
C          3.64894        1.14096       -0.89686
H          3.66631        1.54599       -1.90865
H          4.10800        1.83641       -0.19415
H          4.14600        0.17141       -0.86042
N         -1.12423        2.18821        0.73008
C         -0.81977        2.63566        2.10221
C         -2.29149        2.83374        0.09646
H         -0.26829        2.31681        0.14937
H         -1.65787        2.38912        2.75611
H          0.08005        2.11612        2.43394
H         -0.64603        3.71320        2.10638
H         -3.17915        2.63863        0.70014
H         -2.11814        3.90830        0.01647
H         -2.42378        2.39377       -0.89231
H         -1.29002        1.14382        0.74437
N          0.86340       -2.21909        0.76906
C          2.00445       -2.94982        0.18607
C          0.38064       -2.73829        2.06369
H          1.13593       -1.22103        0.87730
H          1.71779       -3.98796        0.01098
H          2.25891       -2.46905       -0.75874
H          2.85219       -2.90652        0.87227
H          0.08463       -3.78137        1.94228
H          1.17430       -2.65772        2.80864
H         -0.48334       -2.14131        2.35602
