40
1sa1msa2eda_50.log	Energy: -1095295.9943114
S          2.21121        0.27027       -0.90707
O          1.74867        1.39155       -1.73985
O          1.71669        0.32891        0.48159
O          2.02412       -1.05446       -1.53012
O          3.81537        0.46590       -0.72510
H          4.20598        0.59054       -1.60086
S         -2.82045       -0.38702       -0.36036
O         -2.63331       -1.70542       -1.01344
O         -2.93538        0.75670       -1.29076
O         -1.76212       -0.14391        0.67897
C         -4.36636       -0.48493        0.52374
H         -5.15389       -0.68142       -0.20411
H         -4.29881       -1.29652        1.24818
H         -4.53602        0.46784        1.02544
H         -0.75013        4.19512       -0.06070
H         -1.98340        3.19854        0.76286
H         -0.30069        4.05606        2.35704
H         -0.28938        2.29114        2.29056
H          1.92206        3.70466        2.08640
H          1.74871        2.36171        1.16119
H          0.29657        2.17261       -0.85980
H         -0.71416        1.24059        0.11246
C         -0.92763        3.26954        0.49013
C         -0.03802        3.20202        1.72527
N         -0.63795        2.13183       -0.41705
N          1.36661        3.28563        1.35180
H         -1.36124        2.01759       -1.13966
H         -0.30183       -3.88480        1.17139
H          0.57862       -4.25413       -0.33625
H          2.07920       -4.17212        1.67026
H          2.53249       -2.98592        0.44065
H          2.16075       -2.34609        2.99622
H          1.78197       -1.28045        1.80432
H         -0.98378       -2.35911       -0.61021
H         -0.24489       -1.55930        0.59247
C          0.44939       -3.52372        0.46598
C          1.76624       -3.24291        1.18519
N         -0.06678       -2.27096       -0.13200
N          1.57191       -2.20067        2.18685
H          0.62891       -1.86334       -0.78855
