38
1sa1msa1dma1eda_136.log	Energy: -1060552.6958897
S         -0.92812       -0.61509        1.64797
O         -1.71079       -1.42909        2.55888
O         -1.58885        0.66868        1.27049
O          0.48809       -0.38077        2.03915
O         -0.77035       -1.42609        0.25865
H         -1.70460       -1.54159       -0.13572
S          2.66198       -0.63534       -0.73578
O          4.02396       -0.49024       -1.19990
O          1.67082        0.36676       -1.16291
O          2.69747       -0.69148        0.83562
H          1.77504       -0.62387        1.26587
C          2.03086       -2.23143       -1.19496
H          2.73551       -2.98180       -0.83671
H          1.04797       -2.34644       -0.73403
H          1.96355       -2.25290       -2.28333
N          0.32147        2.32579        0.28854
C         -0.16679        3.44101       -0.54916
C          1.16626        2.73326        1.43318
H         -0.48893        1.76072        0.65057
H          0.68725        3.99436       -0.94361
H         -0.74977        3.00346       -1.36148
H         -0.78547        4.09965        0.06271
H          2.07091        3.21557        1.05989
H          0.60179        3.42502        2.05995
H          1.41535        1.84007        2.00569
H          0.85115        1.65749       -0.30136
H         -3.10632        1.18492       -0.77054
H         -3.36273        1.38277       -2.50252
H         -4.67614       -0.47878       -1.91657
H         -3.24976       -1.17447       -2.70030
H         -3.68476       -1.03173        0.20439
H         -3.68646       -2.37908       -0.71395
H         -0.97266        0.14619       -1.30680
H         -1.21091        0.46288       -2.89256
C         -2.90131        0.73483       -1.74884
C         -3.59251       -0.63218       -1.81199
N         -1.45912        0.75979       -1.95477
N         -3.27859       -1.45283       -0.63004
