33
1sa1msa1a1tma_40.log	Energy: -1001153.6879568
S         -0.74447       -1.56573        0.03856
O         -1.43545       -0.72432        1.05515
O         -1.56001       -2.61763       -0.53444
O         -0.10062       -0.65953       -0.97284
O          0.45425       -2.30681        0.79140
H          1.10745       -1.64210        1.10626
S          2.82126        0.40182        0.04360
O          2.37553       -0.36225        1.21557
O          2.44606        1.80776       -0.00970
O          2.38608       -0.34898       -1.26950
H          1.37878       -0.54551       -1.22824
C          4.58282        0.25176       -0.10071
H          5.01341        0.74023        0.77379
H          4.83645       -0.80755       -0.11990
H          4.89527        0.75165       -1.01711
N         -4.22246       -0.85001       -0.15064
H         -3.86868       -1.04155        0.78379
H         -3.70839       -1.49914       -0.74408
H         -5.19639       -1.13581       -0.17318
N         -2.01018        1.69413        0.06438
C         -3.18127        2.20118        0.81672
H         -4.03341        1.56589        0.57146
H         -2.96481        2.14105        1.88413
H         -3.37034        3.23898        0.53206
C         -0.77161        2.45145        0.37010
H         -0.57621        2.38542        1.44067
H          0.06538        2.00712       -0.16698
H         -0.90562        3.49412        0.07311
C         -2.28347        1.63244       -1.39401
H         -1.42824        1.16238       -1.87841
H         -3.17385        1.01855       -1.53649
H         -2.43893        2.64710       -1.76894
H         -1.83764        0.70621        0.39967
