38
1sa1msa1dma1eda_141.log	Energy: -1060548.0641419
S          0.96624       -0.03956       -0.91966
O         -0.43089       -0.20489       -1.44684
O          1.97914        0.12075       -1.95460
O          0.97271        1.06980        0.08434
O          1.22781       -1.38262       -0.14100
H         -0.51967        1.68576        0.16037
H          2.24512       -1.51998        0.05594
S         -3.08342       -0.94066        0.35795
O         -3.51482        0.28866       -0.33386
O         -2.50659       -0.73868        1.68081
O         -2.14798       -1.77193       -0.57042
H         -1.36272       -1.18059       -0.93865
C         -4.46632       -2.04605        0.46759
H         -4.87162       -2.19554       -0.53241
H         -4.11375       -2.98396        0.89612
H         -5.20023       -1.57469        1.12167
N         -1.45388        2.17908        0.08220
C         -1.32750        3.19968       -0.97718
C         -1.85520        2.69377        1.40629
H         -2.14615        1.46811       -0.21314
H         -0.56927        3.92651       -0.68320
H         -1.01795        2.69800       -1.89413
H         -2.28866        3.69515       -1.12461
H         -1.09869        3.39496        1.76182
H         -2.82167        3.19389        1.32363
H         -1.93488        1.84630        2.08794
H          5.67617       -1.05696       -0.25822
H          4.30303       -0.58386       -1.29366
H          5.06123        1.32866        0.05297
H          3.41465        0.86218        0.48237
H          5.80856        0.37184        2.08825
H          4.36032        0.98251        2.54568
H          3.99234       -2.70478       -0.02601
H          3.93576       -1.78753        1.34224
C          4.61995       -0.74955       -0.26115
C          4.45977        0.54304        0.53097
N          3.76086       -1.78525        0.33702
N          4.80785        0.30953        1.93589
