32
1sa1msa1a1eda_300.log	Energy: -1011223.6254904
S          0.54166       -1.70872        0.04071
O          0.77214       -0.73132       -1.04707
O         -0.78210       -2.35962       -0.05374
O          1.67133       -2.62889        0.23401
O          0.52783       -0.84785        1.41046
H          3.12597       -1.80235       -0.47202
H         -0.30652       -0.32225        1.43374
S         -2.67815        0.53048       -0.04701
O         -2.30116        1.59535       -0.95860
O         -1.90497        0.38337        1.19261
O         -2.73093       -0.85418       -0.79374
H         -1.95592       -1.46272       -0.52895
C         -4.38980        0.72431        0.38409
H         -4.48823        1.68898        0.88253
H         -4.97281        0.70582       -0.53665
H         -4.67431       -0.09090        1.04827
N          3.51398       -0.94879       -0.92229
H          4.44196       -1.09523       -1.30604
H          3.45403       -0.13857       -0.16323
H          2.82652       -0.71981       -1.64516
H          2.86937        3.02082        1.33179
H          4.13663        2.58155        0.16330
H          2.13635        3.61353       -0.89973
H          2.44251        1.99194       -1.51218
H          0.06356        2.82121       -0.46948
H          0.51846        1.25916       -0.56649
H          3.64176        0.82026        1.79549
H          2.12673        0.70077        1.20491
C          3.12279        2.34396        0.50657
C          2.11386        2.55414       -0.62314
N          3.09072        0.93900        0.94973
N          0.78093        2.16554       -0.18972
