38
1sa1msa1dma1eda_242.log	Energy: -1060546.0230105
S          0.26123       -1.59002       -0.54204
O          0.06924       -0.77856        0.70852
O          0.37891       -0.74080       -1.73198
O          1.59337       -2.39655       -0.36838
O         -0.80610       -2.62360       -0.61660
H          2.41955       -1.76643       -0.54244
H         -2.02165       -2.21811        0.26143
S         -1.20418        2.34379       -0.10925
O         -1.35922        3.72271        0.30751
O         -2.33058        1.42058        0.05690
O          0.05132        1.75812        0.65066
H          0.05289        0.73501        0.64330
C         -0.70346        2.29353       -1.81510
H         -1.54355        2.65703       -2.40833
H          0.15811        2.95180       -1.92911
H         -0.45060        1.25953       -2.06268
N         -2.95479       -2.01335        0.75025
C         -3.85330       -1.38096       -0.24856
C         -2.73905       -1.19092        1.96841
H         -3.32473       -2.92565        1.01434
H         -3.41781       -0.42030       -0.52491
H         -3.91639       -2.03335       -1.11954
H         -4.84026       -1.23020        0.19235
H         -2.36847       -0.21683        1.65143
H         -3.68675       -1.08447        2.49996
H         -1.99383       -1.68259        2.59230
H          3.95839        1.30323       -0.79887
H          2.25347        0.81034       -0.86124
H          2.79522        1.65599        1.37933
H          2.40818       -0.06307        1.44806
H          5.09201        1.08907        1.64943
H          4.36275        0.01079        2.63627
H          3.81773       -0.85257       -1.79974
H          4.42048       -1.06376       -0.27661
C          3.22656        0.57324       -0.42390
C          3.15218        0.65761        1.09540
N          3.59292       -0.79989       -0.81100
N          4.45320        0.30097        1.67010
