36
1sa1msa2dma_62.log	Energy: -1025815.3092786
S          1.34421        0.39873       -0.56847
O          0.01193       -0.03987       -1.10350
O          2.44229        0.29334       -1.52128
O          1.19350        1.75624        0.02792
O          1.61750       -0.61047        0.62003
H         -0.38371        2.06320        0.20687
H          2.64570       -0.73670        0.75869
S         -2.80599       -1.21399        0.08203
O         -3.57548       -0.74514       -1.06058
O         -2.55294       -0.21646        1.13935
O         -1.46620       -1.88663       -0.35124
H         -0.76820       -1.17212       -0.66077
C         -3.61499       -2.60668        0.82618
H         -4.58434       -2.25736        1.18259
H         -3.73735       -3.37449        0.06256
H         -2.99978       -2.96358        1.65125
N         -1.42841        2.20540        0.30855
C         -2.01209        2.45561       -1.02817
C         -1.68812        3.26577        1.29966
H         -1.80162        1.30272        0.65979
H         -1.60452        3.38729       -1.42373
H         -1.73480        1.62418       -1.67526
H         -3.09787        2.51812       -0.94284
H         -1.25870        4.20273        0.94174
H         -2.76407        3.38011        1.44162
H         -1.21837        2.98683        2.24289
N          4.18659       -0.93219        0.89033
C          4.82429        0.38679        0.81224
C          4.59757       -1.82186       -0.20119
H          4.41026       -1.36318        1.78274
H          4.50926        0.86642       -0.11742
H          4.48663        1.00367        1.64819
H          5.92078        0.31878        0.83059
H          4.24759       -1.39017       -1.14176
H          5.68756       -1.95395       -0.24341
H          4.12202       -2.79672       -0.07143
