36
1sa1msa2dma_36.log	Energy: -1025821.7482160
S         -1.48700        1.38197       -0.51813
O         -0.11410        1.13634       -1.36084
O         -1.25136        0.75955        0.80266
O         -1.61278        2.82946       -0.52292
O         -2.54894        0.64148       -1.26129
H         -2.85310       -0.69430       -0.52308
S          1.78075       -1.66782       -0.03131
O          1.11515       -2.37276        1.06959
O          2.61940       -0.50891        0.40769
O          0.85462       -1.28564       -1.14325
H          0.18066        0.17802       -1.30646
C          2.94004       -2.81083       -0.76482
H          3.65794       -3.10111        0.00243
H          2.38224       -3.67926       -1.11602
H          3.43979       -2.31353       -1.59619
N          1.81868        2.02474        0.45766
C          2.96800        2.78818       -0.06481
C          1.25175        2.54308        1.72217
H          1.07838        1.97256       -0.26433
H          3.77058        2.77372        0.67386
H          3.31142        2.31486       -0.98458
H          2.66348        3.81668       -0.26481
H          2.02382        2.51247        2.49252
H          0.90627        3.56612        1.56708
H          0.40507        1.91196        1.99239
H          2.10347        1.01171        0.56353
N         -3.10229       -1.57163        0.04371
C         -3.79692       -1.12647        1.27456
C         -1.86334       -2.35053        0.30867
H         -3.73729       -2.11798       -0.53622
H         -3.11231       -0.46846        1.81018
H         -4.69261       -0.57117        0.99459
H         -4.05973       -1.99359        1.88336
H         -1.20504       -1.75209        0.93552
H         -2.12003       -3.28800        0.80495
H         -1.35078       -2.53346       -0.63508
