30
1sa1msa1a1dma_38.log	Energy: -976497.6021345
S         -1.72752        0.29792        0.35459
O         -0.93815        0.62935        1.54472
O         -2.99677        0.99447        0.17433
O         -0.84481        0.44027       -0.88261
O         -2.01488       -1.26338        0.45630
H          0.26736       -0.64578       -1.03280
H         -2.82844       -1.48566       -0.11486
S          2.08424       -1.35949       -0.01632
O          3.12120       -2.28102       -0.42305
O          1.02241       -1.31150       -1.18289
O          2.48565        0.01557        0.32933
H          1.60167        1.53072        0.26914
C          1.18843       -2.01799        1.36974
H          0.75692       -2.97229        1.06964
H          1.91552       -2.15310        2.17161
H          0.41350       -1.30530        1.65924
N         -4.21838       -1.52977       -1.01570
H         -4.09513       -1.73137       -2.00226
H         -4.47946       -0.55017       -0.91902
H         -4.97711       -2.10350       -0.66390
N          1.03863        2.27217       -0.18822
C          1.79664        2.77767       -1.35114
C          0.61689        3.30229        0.78540
H          0.20729        1.72812       -0.52343
H          2.69531        3.28846       -1.00290
H          2.07801        1.92894       -1.97460
H          1.16944        3.46652       -1.91846
H          1.50143        3.79433        1.19284
H         -0.01609        4.03220        0.27858
H          0.05171        2.80444        1.57336
