30
1sa1msa1a1dma_121.log	Energy: -976477.8486259
S          1.71643       -1.26131        0.29964
O          3.05914       -1.78216        0.35142
O          0.69150       -1.79309        1.19121
O          1.72192        0.29151        0.52997
O          1.23370       -1.41811       -1.19696
H          2.54074        0.71584        0.03292
H          0.27242       -1.15785       -1.26367
S         -2.34361       -0.72004       -0.20685
O         -3.19206       -1.88013       -0.37337
O         -1.24408       -0.53472       -1.17372
O         -1.72884       -0.66805        1.25964
H         -0.85508       -1.14283        1.29818
C         -3.29619        0.76910       -0.17466
H         -3.79050        0.83966       -1.14437
H         -4.03075        0.68050        0.62597
H         -2.59185        1.59458       -0.01090
N          3.81723        1.17805       -0.71714
H          3.65417        1.29222       -1.71314
H          4.48176        0.41715       -0.59544
H          4.24050        2.03096       -0.36516
N         -0.52443        2.45383        0.25365
C         -0.27683        3.56022        1.16344
C          0.05985        2.66084       -1.06041
H         -0.12945        1.60468        0.64679
H         -0.76338        4.46450        0.78193
H         -0.70502        3.33549        2.14371
H          0.79605        3.78633        1.29679
H         -0.42587        3.51197       -1.55042
H          1.14537        2.87116       -1.02655
H         -0.10510        1.77093       -1.67267
