27
1sa1msa1a1ma_60.log	Energy: -951832.9450412
S          1.42581       -1.25353       -0.03730
O          0.45112       -1.02950       -1.16376
O          2.78548       -0.93247       -0.45845
O          0.96409       -0.65278        1.21442
O          1.35910       -2.84449        0.26310
H          1.78688       -3.31062       -0.46835
S         -2.60006        0.30048        0.06722
O         -4.02747        0.42967       -0.12048
O         -1.74941        1.47049       -0.20261
O         -2.11754       -0.90825       -0.82958
H         -1.11266       -0.97208       -0.90586
C         -2.24812       -0.24289        1.72146
H         -2.56234        0.55527        2.39507
H         -2.82585       -1.14922        1.90260
H         -1.17439       -0.43017        1.79981
N          0.61041        1.71956       -1.59894
H          1.23198        1.99241       -0.74273
H          0.73484        0.70713       -1.76887
H         -0.37277        1.82427       -1.29646
H          0.81542        2.26865       -2.42744
N          2.02569        2.17744        0.68940
H          1.71889        2.98663        1.22124
C          3.49221        2.15320        0.57409
H          3.99706        2.18720        1.54575
H          3.78035        1.23108        0.06597
H          3.82615        3.00729       -0.02158
H          1.70427        1.34880        1.19451
