28
1sa1msa1eda_113.log	Energy: -975728.0478086
S         -0.69983       -0.86357        0.06232
O         -1.91706       -1.56022       -0.35212
O         -0.01829       -0.13565       -1.03614
O         -0.94849        0.04118        1.22888
O          0.29079       -2.00083        0.55880
H          1.19595       -1.61925        0.67057
S          3.28857        0.24277       -0.13346
O          4.16849       -0.25736       -1.16946
O          2.66989       -0.72955        0.77954
O          2.16225        1.16886       -0.73569
H          1.28679        0.66292       -0.85703
C          4.16318        1.43553        0.85010
H          5.00155        0.91305        1.31162
H          4.52017        2.22382        0.18759
H          3.48241        1.82784        1.60448
H         -4.90885        1.80059        0.71983
H         -3.22274        2.36720        0.90193
H         -3.98412        2.02687       -1.52869
H         -2.53205        1.12955       -1.09586
H         -4.97058        0.02409       -1.95197
H         -3.60194       -0.77988       -1.46845
H         -3.93488        0.36850        2.29955
H         -3.94682       -0.46168        0.84123
C         -3.85798        1.54918        0.55726
C         -3.60930        1.20158       -0.91640
N         -3.54682        0.33649        1.36041
N         -4.27582       -0.06015       -1.22327
H         -2.48229        0.18559        1.40725
