30
1sa1msa1a1dma_26.log	Energy: -976498.1052089
S          1.87007        0.44769       -0.33168
O          1.35726        0.31904        1.02755
O          1.41225       -0.78306       -1.18718
O          1.52545        1.69748       -1.00670
O          3.41105        0.25807       -0.36636
H          3.61006       -0.65166        0.11627
S         -1.83510       -1.30088        0.09846
O         -2.29250       -0.17028        0.96087
O         -1.10885       -2.36513        0.78436
O         -1.09859       -0.73762       -1.09573
H          0.38037       -0.85252       -1.16070
C         -3.32266       -2.01070       -0.58540
H         -3.91722       -2.39806        0.24239
H         -3.86763       -1.23398       -1.12180
H         -3.03322       -2.81649       -1.26011
N          3.55354       -2.03506        0.84920
H          2.76327       -1.95518        1.48687
H          4.36650       -2.32880        1.38021
H          3.32430       -2.76397        0.17965
N         -1.05805        2.10342        0.22991
C         -2.04415        2.67906       -0.70588
C         -0.76360        2.92452        1.42208
H         -1.42897        1.16602        0.54621
H         -1.66969        3.62642       -1.09710
H         -2.18764        1.96646       -1.51832
H         -2.98707        2.83307       -0.17972
H         -0.36998        3.89318        1.10987
H         -1.68132        3.05621        1.99673
H         -0.02115        2.39193        2.01611
H         -0.17450        1.93473       -0.27799
