42
1sa1msa2tma_39.log	Energy: -1075130.1663436
S          0.17136       -1.78700        0.54230
O          1.49649       -2.38903        0.30748
O         -0.88624       -2.69911        0.95965
O          0.33263       -0.76975        1.77656
O         -0.24274       -0.93397       -0.62256
H          1.07550       -0.15492        1.56564
H         -1.84651       -0.83428       -0.66041
S          3.24788        0.55654       -0.26497
O          4.48094        1.30776       -0.30715
O          2.28588        0.84177        0.80923
O          3.62007       -0.97762       -0.23493
H          2.81818       -1.54500       -0.01066
C          2.38456        0.73352       -1.81125
H          2.12352        1.78798       -1.91361
H          3.05949        0.42477       -2.60940
H          1.48755        0.11075       -1.77111
N         -2.90422       -0.90872       -0.71859
C         -3.43388       -0.70965        0.65530
H         -2.94696       -1.42972        1.31370
H         -3.19314        0.30916        0.95903
H         -4.51616       -0.86024        0.64321
C         -3.37475        0.14892       -1.64358
H         -3.10434        1.11222       -1.20398
H         -2.88385        0.01585       -2.60857
H         -4.45785        0.06621       -1.76242
C         -3.18427       -2.27552       -1.22353
H         -2.71386       -2.39034       -2.20069
H         -2.74790       -2.98986       -0.52486
H         -4.26475       -2.41365       -1.30694
N         -1.86889        2.43256        0.33513
C         -1.53136        2.21517        1.73773
H         -2.44252        2.23421        2.34538
H         -1.04981        1.24121        1.85840
H         -0.84510        2.98914        2.12519
C         -0.66756        2.37679       -0.48949
H         -0.18555        1.40440       -0.36956
H         -0.93644        2.50549       -1.54433
H          0.05970        3.16376       -0.22010
C         -2.56282        3.69885        0.15965
H         -2.83135        3.83481       -0.89323
H         -3.48280        3.70602        0.75254
H         -1.94691        4.56355        0.46852
