39
1sa1msa1dma1tma_13.log	Energy: -1050487.5739202
S         -2.79098        0.02564       -0.13920
O         -3.20368        1.20274       -0.90523
O         -3.28348       -1.26857       -0.60979
O         -1.33343        0.02304        0.16305
O         -3.40613        0.23339        1.37366
H         -4.36925        0.25123        1.29537
S          2.68828       -0.40322       -0.14838
O          2.89046        0.61559       -1.19422
O          2.43525       -1.77595       -0.66965
O          1.64677       -0.00413        0.84744
C          4.22344       -0.51601        0.75871
H          5.00605       -0.81023        0.05909
H          4.44084        0.46282        1.18736
H          4.10927       -1.26320        1.54427
N         -0.13720       -2.38882       -0.00471
C         -0.17377       -2.80471        1.41082
C         -0.81510       -3.31033       -0.93843
H         -0.58618       -1.44292       -0.04530
H          0.31975       -3.77211        1.52089
H          0.34928       -2.04386        1.99061
H         -1.21360       -2.87242        1.73480
H         -0.36667       -4.30191       -0.85355
H         -1.87963       -3.33561       -0.70419
H         -0.68422       -2.93167       -1.95206
H          0.85750       -2.23939       -0.29290
N          0.34900        2.37822        0.08350
C          0.08076        2.40287       -1.38102
H          0.89698        1.87500       -1.87623
H         -0.87429        1.91089       -1.56306
H          0.03801        3.44487       -1.70662
C         -0.77722        2.95512        0.86136
H         -1.70818        2.49717        0.53494
H         -0.61050        2.75352        1.91961
H         -0.80444        4.03222        0.68132
C          1.63128        3.05425        0.40860
H          1.82893        2.92742        1.47322
H          2.42224        2.58459       -0.17637
H          1.53834        4.11456        0.16388
H          0.46789        1.37863        0.35236
