32
1sa1msa1a1eda_86.log	Energy: -1011237.8001073
S         -2.54992       -0.66431        0.16607
O         -2.61985        0.76765        0.54512
O         -2.24661       -0.84711       -1.27025
O         -1.71551       -1.47570        1.05451
O         -4.04449       -1.24634        0.40144
H         -4.66938       -0.68482       -0.07742
S          2.69970       -0.38800       -0.03106
O          1.53762       -0.58571        0.90215
O          3.03235        1.02414       -0.24183
O          2.47823       -1.17273       -1.28251
C          4.09786       -1.14937        0.77454
H          4.27936       -0.62456        1.71260
H          3.86769       -2.19884        0.95817
H          4.95673       -1.05469        0.10956
N          0.07723       -2.34155       -0.98139
H          0.03618       -3.32723       -1.22235
H         -0.71335       -1.83020       -1.41705
H         -0.07103       -2.21270        0.02905
H          1.01404       -1.91814       -1.22630
H          0.04296        3.60535        0.94957
H          1.54473        2.64699        0.68849
H          0.76232        3.16332       -1.46596
H          0.32779        1.48190       -1.21781
H         -1.43369        3.06204       -2.14487
H         -1.94434        2.20732       -0.84914
H         -0.01632        1.73825        2.38241
H         -1.08319        1.33866        1.16390
C          0.46103        2.67239        0.56654
C          0.09174        2.51007       -0.90153
N         -0.08577        1.54418        1.38571
N         -1.28479        2.92006       -1.15284
H          0.47869        0.67357        1.20013
