41
1sa1msa1tma1eda_80.log	Energy: -1085216.3103133
S          2.80582       -0.45342        0.17814
O          3.07955        0.56510       -0.83920
O          1.71542       -0.11583        1.11237
O          2.66197       -1.82315       -0.37106
O          4.10405       -0.50344        1.15492
H          4.88291       -0.67805        0.60932
S         -3.16163        0.27303        0.08522
O         -3.36579       -1.17474       -0.11862
O         -2.74057        1.01422       -1.12210
O         -2.23573        0.55737        1.23848
C         -4.74369        0.93569        0.58762
H         -4.63205        2.00696        0.75665
H         -5.45819        0.74598       -0.21384
H         -5.05091        0.43031        1.50337
H          0.63674        1.45642       -1.18091
H         -0.83798        2.43623       -1.17037
H          1.23805        3.66641       -1.95293
H          0.45682        4.44351       -0.57344
H          2.77168        2.64726       -0.30810
H          2.76579        4.27820       -0.06541
H          0.73990        1.36721        1.03269
H          0.00023        2.82625        1.29495
C          0.14883        2.31802       -0.72022
C          1.02259        3.55423       -0.87982
N         -0.03279        1.98427        0.72261
N          2.19750        3.44098       -0.02648
H         -0.94060        1.46290        0.89946
N          0.03286       -2.55390       -0.29734
C         -0.63028       -2.38858        1.02686
H         -0.22713       -3.13893        1.70825
H         -0.41013       -1.38951        1.39806
H         -1.70845       -2.49176        0.89551
C         -0.44946       -1.55056       -1.28562
H         -0.31048       -0.56072       -0.85550
H          0.14429       -1.64762       -2.19497
H         -1.51312       -1.70351       -1.46818
C         -0.11425       -3.93192       -0.81908
H          0.42809       -4.01412       -1.76153
H          0.30013       -4.63372       -0.09465
H         -1.17480       -4.13704       -0.97584
H          1.05531       -2.36328       -0.18470
