36
1sa1msa2dma_51.log	Energy: -1025817.2147425
S          0.99937        0.48116        0.54792
O          0.92358       -0.84935       -0.13598
O         -0.02152        0.64801        1.58996
O          2.40238        0.51395        1.24406
O          0.96611        1.58685       -0.45412
H          3.11540        0.15860        0.54992
H         -0.58005        2.16252       -0.43531
S         -2.52576       -1.57294       -0.18683
O         -3.56574       -2.48268       -0.61466
O         -2.77921       -0.13215       -0.36198
O         -1.20749       -1.97132       -0.94260
H         -0.38009       -1.45663       -0.62943
C         -2.13678       -1.84100        1.52754
H         -3.04187       -1.61604        2.09344
H         -1.85856       -2.88785        1.64818
H         -1.32385       -1.16507        1.80697
N         -1.61393        2.34364       -0.33468
C         -2.15717        2.90026       -1.58895
C         -1.84504        3.17171        0.86684
H         -2.02005        1.39830       -0.19177
H         -1.67903        3.85912       -1.79478
H         -1.94943        2.19903       -2.39683
H         -3.23543        3.03300       -1.48946
H         -1.38313        4.14948        0.72043
H         -2.91841        3.28685        1.02692
H         -1.38140        2.66333        1.71213
N          4.01009       -0.43914       -0.53317
C          4.13260       -1.87532       -0.27047
C          5.29543        0.24267       -0.68031
H          3.45045       -0.30534       -1.37222
H          4.64708       -2.01822        0.68386
H          3.13088       -2.30170       -0.19265
H          4.69704       -2.39607       -1.05569
H          5.84362        0.17324        0.26329
H          5.91421       -0.19449       -1.47579
H          5.12251        1.29851       -0.89912
