40
1sa1msa2eda_109.log	Energy: -1095293.6189998
S          2.90874       -0.13419       -0.42285
O          2.92420       -1.47705       -1.03154
O          2.69790        0.95872       -1.39360
O          2.03573       -0.02995        0.76035
O          4.39479        0.09157        0.20030
H          5.03806       -0.04729       -0.50779
S         -2.48224       -0.02833       -0.73529
O         -2.29315        1.34468       -0.18752
O         -2.85304       -1.03473        0.27781
O         -1.29685       -0.43071       -1.55236
C         -3.84697        0.08238       -1.87876
H         -4.73072        0.39215       -1.32052
H         -3.59469        0.81691       -2.64342
H         -3.99830       -0.90086       -2.32454
H         -1.49700       -3.13703       -0.32033
H         -0.08005       -4.21115       -0.39890
H         -1.40094       -4.28809        1.79401
H          0.32374       -3.94485        2.00121
H         -1.73584       -1.83867        1.94633
H         -0.78024       -2.27745        3.23769
H         -0.16849       -1.49392       -0.82634
H          0.43717       -1.61722        0.70573
C         -0.50829       -3.33861        0.09617
C         -0.61659       -3.54007        1.61020
N          0.33014       -2.14396       -0.17924
N         -0.84540       -2.24409        2.22929
H          1.27879       -2.31114       -0.54565
H          1.37047        3.64908        0.74958
H          0.40880        4.11254       -0.67443
H         -0.61417        4.74023        1.59448
H         -1.67695        3.83980        0.50621
H         -1.17819        3.09496        3.03395
H         -1.56189        2.02339        1.84488
H          1.13687        1.84050       -0.91156
H          0.65736        1.45928        0.59225
C          0.42951        3.48586        0.22033
C         -0.77281        3.76548        1.12408
N          0.41459        2.06547       -0.20461
N         -0.88701        2.72460        2.13949
H         -0.52989        1.77457       -0.51660
