41
1sa1msa1tma1eda_33.log	Energy: -1085218.1854936
S         -2.47626        1.36053       -0.29380
O         -1.79977        2.44977       -0.99328
O         -3.30382        0.47194       -1.11102
O         -1.55431        0.60301        0.61337
O         -3.47357        2.05053        0.80246
H         -4.06849        2.64420        0.32467
S          2.33492       -1.50836       -0.26159
O          1.56009       -2.55630       -0.95368
O          1.78305       -1.15965        1.07305
O          2.55684       -0.28355       -1.09268
C          3.96521       -2.18938        0.00891
H          4.40537       -2.41255       -0.96313
H          4.56635       -1.45346        0.54360
H          3.85895       -3.09984        0.59932
H          1.19841        2.72007        1.75545
H          2.10178        1.18369        1.66322
H          3.65541        3.13806        1.42434
H          3.60888        2.14968       -0.04247
H          2.30812        4.75373        0.29094
H          3.28274        4.23511       -0.91996
H          0.09486        1.20953        0.28838
H          0.75297        2.44350       -0.62334
C          1.81303        2.08192        1.11390
C          3.02324        2.83518        0.57821
N          0.98026        1.64311       -0.02709
N          2.57245        3.94456       -0.25995
H          1.51873        0.92781       -0.57871
N         -1.88601       -2.08812        0.33822
C         -3.32719       -2.22065        0.66534
H         -3.48431       -1.90314        1.69684
H         -3.89192       -1.57409       -0.00673
H         -3.62142       -3.26546        0.54402
C         -1.61928       -2.41114       -1.09184
H         -2.19016       -1.71203       -1.70386
H         -0.54630       -2.32057       -1.27427
H         -1.94036       -3.43881       -1.27794
C         -1.02693       -2.87902        1.25667
H          0.01827       -2.65355        1.04318
H         -1.26284       -2.59616        2.28334
H         -1.23340       -3.94011        1.10026
H         -1.65365       -1.07467        0.46808
