26
1sa1msa1dma_18.log	Energy: -940997.8886508
S         -1.81247       -1.00162       -0.05385
O         -2.36454        0.09007       -0.87492
O         -0.83314       -1.86589       -0.76993
O         -1.31104       -0.55921        1.24913
O         -3.10037       -1.95172        0.18331
H         -2.79617       -2.77826        0.58262
S          2.20742       -0.28904        0.10121
O          2.34682        0.00424        1.51456
O          1.48745        0.70967       -0.71444
O          1.60500       -1.70771       -0.15323
H          0.59391       -1.72321       -0.37643
C          3.81833       -0.50949       -0.61389
H          4.36529        0.42179       -0.46500
H          4.30890       -1.33140       -0.09256
H          3.69913       -0.73067       -1.67382
N         -0.76159        2.17184       -0.09381
C         -0.78890        3.28898       -1.05910
C         -0.90066        2.56747        1.32557
H         -1.50226        1.47750       -0.34777
H          0.02528        3.98027       -0.83689
H         -0.66653        2.88198       -2.06274
H         -1.74676        3.80545       -0.98364
H         -0.07662        3.22994        1.59464
H         -1.85464        3.07936        1.46025
H         -0.87533        1.65877        1.92632
H          0.12366        1.63881       -0.21735
