36
1sa1msa2dma_53.log	Energy: -1025815.5283296
S          1.10480        1.53804        0.22528
O          2.25825        1.94321        1.01764
O          0.20931        0.56802        0.97180
O          0.26720        2.63377       -0.31209
O          1.62311        0.73813       -1.03659
H          2.49337        0.22522       -0.75509
S         -1.76373       -1.89634        0.04652
O         -2.16415       -0.93887       -1.00371
O         -2.55922       -1.87121        1.26475
O         -0.24175       -1.75429        0.34172
H          0.01399       -0.74690        0.59882
C         -1.80323       -3.52351       -0.66124
H         -1.18649       -3.52714       -1.55930
H         -1.42794       -4.22678        0.08184
H         -2.84494       -3.73752       -0.90164
N         -2.27167        1.75869       -0.31955
C         -3.11798        2.47576       -1.29198
C         -2.77082        1.78747        1.07353
H         -2.18296        0.76523       -0.60982
H         -3.18417        3.52666       -1.00664
H         -2.66217        2.39312       -2.27862
H         -4.11363        2.02950       -1.30628
H         -2.86321        2.82557        1.39626
H         -3.73770        1.28461        1.12198
H         -2.04617        1.26558        1.69792
H         -1.29166        2.15115       -0.33841
N          3.74811       -0.44754       -0.14335
C          4.67943       -1.01740       -1.11325
C          3.29611       -1.40813        0.86641
H          4.16762        0.35179        0.32619
H          4.17091       -1.80671       -1.67453
H          4.99265       -0.24381       -1.81773
H          5.57037       -1.45081       -0.63748
H          2.69443       -2.18213        0.38157
H          4.13495       -1.88688        1.39012
H          2.66744       -0.89018        1.59365
