32
1sa1msa1a1eda_08.log	Energy: -1011241.0051621
S         -2.43749       -1.10020        0.02084
O         -1.26678       -0.72106        0.84189
O         -3.16634        0.01548       -0.57680
O         -2.10031       -2.19080       -0.92420
O         -3.42851       -1.76156        1.13115
H         -4.28175       -1.92552        0.70740
S          2.85270       -0.19233        0.14474
O          2.73722       -1.44762        0.91354
O          2.60234        1.03995        0.93848
O          2.00670       -0.22764       -1.09395
C          4.54357       -0.06480       -0.40704
H          5.18194       -0.02951        0.47609
H          4.77426       -0.94136       -1.01267
H          4.64561        0.84876       -0.99267
N          0.59881       -2.51762       -0.62875
H          1.01105       -3.35028       -1.03899
H         -0.43951       -2.48965       -0.76926
H          0.83272       -2.47849        0.36723
H          1.05503       -1.65779       -1.02007
H          0.63936        2.99330       -0.77609
H          0.02211        1.43279       -1.33406
H         -1.61205        3.31336       -1.80343
H         -2.29048        2.08838       -0.72487
H         -1.37637        4.75637        0.05678
H         -2.73646        3.95449        0.48903
H          0.97478        1.50766        0.95850
H         -0.41112        2.43186        1.37620
C         -0.15427        2.25362       -0.63798
C         -1.53608        2.87684       -0.79947
N         -0.02635        1.72401        0.74203
N         -1.75167        3.84172        0.28259
H         -0.57193        0.84126        0.84646
