26
1sa1msa1dma_65.log	Energy: -940973.6787205
S         -3.14043       -0.42198       -0.18394
O         -4.30377       -1.01090       -0.78319
O         -2.58485        0.82389       -0.68264
O         -3.43553       -0.11461        1.36702
O         -2.02503       -1.52173       -0.12732
H         -3.98373       -0.82378        1.73415
H         -1.14341       -1.11966        0.13929
S          0.78499        0.86344        0.03187
O          1.33904        0.73961       -1.30130
O          0.17964       -0.34537        0.62492
O         -0.29245        2.03419        0.09371
H         -1.17018        1.69769       -0.21660
C          1.98868        1.49431        1.15831
H          2.79235        0.74667        1.14537
H          2.33369        2.45440        0.77379
H          1.52502        1.59722        2.13849
N          3.83874       -0.86618       -0.04306
C          4.56535       -1.95348        0.59380
C          4.67837       -0.04214       -0.90119
H          3.07079       -1.23856       -0.59247
H          5.30921       -1.53948        1.28339
H          3.87445       -2.56801        1.17678
H          5.09717       -2.60484       -0.12030
H          5.41031        0.49537       -0.28744
H          5.23474       -0.62147       -1.65689
H          4.05469        0.69163       -1.41813
