38
1sa1msa1dma1eda_269.log	Energy: -1060545.9295806
S         -0.56669        2.34984       -0.30360
O         -1.95820        1.87396       -0.50597
O         -0.30593        2.83502        1.05121
O          0.44199        1.40189       -0.81024
O         -0.39840        3.61370       -1.31209
H         -1.06123        4.27613       -1.07387
S         -2.01855       -1.57702        0.11626
O         -2.63749       -1.24437        1.39086
O         -0.56324       -1.74339        0.11963
O         -2.45681       -0.57663       -1.01424
H         -2.23895        0.39898       -0.79737
C         -2.75261       -3.05516       -0.54279
H         -2.51461       -3.86086        0.15216
H         -3.82972       -2.90460       -0.60756
H         -2.32118       -3.24742       -1.52460
N          1.43622        0.09525        1.45633
C          0.52138       -0.02676        2.61273
C          2.50614        1.09911        1.64792
H          1.88135       -0.82220        1.20036
H          0.03874        0.93833        2.77287
H         -0.23041       -0.78106        2.38840
H          1.10049       -0.31482        3.49245
H          2.04147        2.07589        1.78838
H          3.09998        0.82615        2.52296
H          3.12576        1.10263        0.74988
H          0.90607        0.38589        0.61489
H          3.50304       -2.86726       -1.45337
H          1.88011       -3.18034       -0.80932
H          1.88693       -1.55804       -2.70865
H          1.13395       -0.95323       -1.24296
H          3.68406       -0.09314       -2.34211
H          2.43967        0.77686       -1.72074
H          3.38972       -2.80274        0.98429
H          3.85459       -1.36263        0.35091
C          2.66111       -2.42012       -0.90262
C          2.09415       -1.23334       -1.67864
N          3.06928       -2.00260        0.44874
N          2.98560       -0.07286       -1.60685
