27
1sa1msa1a1ma_133.log	Energy: -951824.3959651
S         -2.03983        0.17176        0.37095
O         -3.34745        0.05846        1.01182
O         -0.89168        0.42293        1.27724
O         -1.69995       -1.26909       -0.26267
O         -2.02113        1.13756       -0.77045
H         -2.56197       -1.68017       -0.58598
H         -0.61136        1.96844       -0.71610
S          2.73509       -0.64885        0.01945
O          2.29923        0.42507       -0.86649
O          3.52998       -0.32262        1.19084
O          3.61543       -1.65944       -0.89448
H          4.48335       -1.75744       -0.47678
C          1.35053       -1.66048        0.44211
H          0.66385       -1.03949        1.02780
H          0.85130       -1.96743       -0.47674
H          1.71766       -2.51263        1.01339
N         -4.19443       -2.11017       -0.86356
H         -4.58156       -1.84614       -1.76299
H         -4.55879       -1.47030       -0.15844
H         -4.50495       -3.04982       -0.64340
N          0.27774        2.33729       -0.26923
H          0.13326        2.01684        0.69902
C          0.45478        3.79389       -0.40457
H          1.34200        4.11145        0.14348
H          0.56770        4.04268       -1.45945
H         -0.42668        4.29472       -0.00512
H          1.07148        1.78944       -0.62746
