29
1sa1msa1tma_25.log	Energy: -965656.4560471
S          1.79697       -1.35245       -0.15272
O          2.28685       -2.63207       -0.62488
O          0.68687       -1.43346        0.84099
O          3.01777       -0.67143        0.72860
O          1.55453       -0.30999       -1.16218
H          3.39798       -1.35878        1.29147
H          0.76233        1.13973       -0.55679
S         -2.39482       -0.26528        0.04768
O         -1.64567        0.45982       -0.97943
O         -2.59388        0.43608        1.31201
O         -1.77113       -1.68794        0.27783
H         -0.76919       -1.62806        0.48346
C         -3.96919       -0.75854       -0.60768
H         -3.79974       -1.30677       -1.53375
H         -4.47141       -1.37848        0.13433
H         -4.53383        0.15548       -0.79375
N          0.84819        2.06935       -0.08229
C          2.27267        2.45870       -0.25286
H          2.89907        1.68743        0.19469
H          2.49104        2.52453       -1.31846
H          2.43432        3.42449        0.23092
C         -0.07007        3.03675       -0.73100
H          0.17873        3.09964       -1.79064
H         -1.08840        2.66972       -0.62026
H          0.05493        4.01201       -0.25528
C          0.51341        1.86651        1.35410
H         -0.52922        1.55889        1.43965
H          1.15873        1.08214        1.74918
H          0.67933        2.80787        1.88309
