36
1sa1msa1ma1tma_09.log	Energy: -1025828.3925812
S          1.28407        1.77770       -0.32329
O          2.74023        1.81752       -0.35776
O          0.54062        2.85353       -0.96882
O          0.95838        0.40395       -1.18647
O          0.74670        1.45771        1.03998
H         -0.82052        1.84011        1.19268
S         -2.04226       -1.21697       -0.12193
O         -2.67641       -0.63709        1.09563
O         -0.96162       -2.17856        0.16997
O         -1.62490       -0.14430       -1.07563
H         -0.02621        0.23936       -1.20910
C         -3.33322       -2.12437       -0.95442
H         -3.69198       -2.89857       -0.27591
H         -4.13343       -1.42797       -1.20464
H         -2.91016       -2.56538       -1.85712
N         -1.86890        1.96724        1.29131
H         -2.26424        0.99634        1.30231
C         -2.42212        2.74728        0.15744
H         -3.49101        2.89891        0.31241
H         -1.89748        3.69837        0.08331
H         -2.24823        2.17054       -0.74942
H         -2.05219        2.41453        2.18609
N          2.26239       -1.56796        0.21276
C          2.02787       -2.89689       -0.40594
H          0.96139       -3.11408       -0.34739
H          2.34641       -2.85625       -1.44830
H          2.61203       -3.64533        0.13436
C          3.67948       -1.13767        0.09074
H          3.95643       -1.14330       -0.96364
H          3.76778       -0.11844        0.46677
H          4.30712       -1.83157        0.65433
C          1.79083       -1.52357        1.62420
H          1.89620       -0.50036        1.98480
H          0.73799       -1.80735        1.63426
H          2.39501       -2.21679        2.21439
H          1.69081       -0.87011       -0.32248
