40
1sa1msa2eda_195.log	Energy: -1095281.4327471
S          0.16874       -1.72243        0.38134
O         -0.96471       -2.54166        0.78677
O          1.41520       -2.46151        0.09061
O         -0.14381       -0.73828       -0.69520
O          0.47639       -0.80878        1.68803
H         -1.12887        0.52074       -0.07011
H          1.26511       -0.25761        1.47748
S          3.43095        0.31417       -0.38443
O          4.72729        0.95169       -0.42418
O          2.48447        0.72895        0.66649
O          3.65849       -1.24061       -0.29240
H          2.78972       -1.73955       -0.13257
C          2.60929        0.52025       -1.94901
H          2.46410        1.59146       -2.09621
H          3.25886        0.11252       -2.72347
H          1.64977       -0.00081       -1.90032
H         -5.75962       -0.63692       -1.03506
H         -4.74407       -0.42843       -2.45988
H         -3.97211       -2.29599       -1.06626
H         -2.73426       -1.05626       -1.24793
H         -4.41680       -1.34523        1.14243
H         -2.82615       -1.72815        0.97970
H         -4.98047        1.69782       -1.67725
H         -4.82845        1.29410       -0.11083
C         -4.75871       -0.32140       -1.37120
C         -3.70916       -1.26465       -0.79482
N         -4.48180        1.08431       -1.04213
N         -3.56017       -1.09237        0.65786
H         -2.06764        2.45400        1.99507
H         -0.83156        1.19304        2.22282
H          0.25652        3.38311        1.80069
H          0.60183        2.24207        0.50825
H         -1.23900        4.51278        0.35128
H         -0.08440        4.04916       -0.70477
H         -2.59094        0.43137        0.71056
H         -2.27596        1.71744       -0.30608
C         -1.25970        1.89825        1.50890
C         -0.19602        2.83963        0.96078
N         -1.84909        1.11393        0.40327
N         -0.78629        3.70424       -0.06144
