33
1sa1msa1ma1dma_26.log	Energy: -1001160.3495660
S         -2.38490        0.60435        0.27699
O         -1.13441        1.35521        0.39548
O         -2.34032       -0.57839        1.31890
O         -3.64080        1.28285        0.42391
O         -2.39122       -0.11947       -1.12575
H         -1.53846       -0.63200       -1.25196
S          0.68334       -1.91589       -0.18562
O          2.04501       -1.32267       -0.21356
O         -0.15561       -1.47288       -1.33081
O          0.01343       -1.71118        1.12795
H         -1.44322       -1.02996        1.29331
C          0.90539       -3.67055       -0.37938
H          1.39415       -3.84476       -1.33784
H          1.52426       -4.02659        0.44413
H         -0.07870       -4.13863       -0.35543
N          0.85644        2.65195       -1.22661
H         -0.06979        2.59956       -0.80248
C          0.89458        1.77156       -2.40535
H          0.16037        2.04638       -3.17071
H          1.89204        1.80070       -2.85260
H          0.69121        0.74437       -2.09194
H          1.02447        3.61688       -1.49182
N          2.24242        1.23688        0.70229
C          1.60417        1.34252        2.03182
C          3.68043        1.55922        0.68951
H          2.12115        0.26037        0.34700
H          1.74251        2.35436        2.41827
H          0.54175        1.13136        1.91452
H          2.05828        0.61739        2.70906
H          3.82569        2.59363        1.00706
H          4.21344        0.88823        1.36526
H          4.06239        1.42883       -0.32368
H          1.73520        1.86841       -0.00039
