36
1sa1msa2dma_223.log	Energy: -1025798.6201120
S          1.34713        0.35305       -0.57748
O          2.41495        1.33891       -0.73478
O          0.23161        0.45344       -1.53128
O          1.89017       -1.04492       -0.50117
O          0.75480        0.66175        0.88345
H          3.27187       -0.98482        0.08097
H         -0.07031        0.13047        1.01701
S         -2.47742       -1.19478        0.17451
O         -3.74918       -0.58675        0.51018
O         -1.34102       -1.02857        1.09170
O         -2.03966       -0.82407       -1.29592
H         -1.20196       -0.26724       -1.32315
C         -2.73751       -2.94327       -0.02511
H         -3.08885       -3.32818        0.93276
H         -3.49406       -3.08755       -0.79638
H         -1.79173       -3.40293       -0.30986
N         -1.94728        1.96360        0.11528
C         -2.36868        2.30506        1.46179
C         -2.88788        2.39663       -0.90279
H         -1.02873        2.34890       -0.07322
H         -3.28369        1.75207        1.69743
H         -1.59853        1.99934        2.17582
H         -2.56811        3.38265        1.60347
H         -3.82596        1.84590       -0.77870
H         -3.11407        3.47743       -0.86182
H         -2.48624        2.16267       -1.89246
N          4.27222       -0.83351        0.48888
C          4.16106        0.09585        1.64171
C          5.13800       -0.32570       -0.60318
H          4.60813       -1.74063        0.80858
H          3.76676        1.04001        1.26509
H          3.45684       -0.32125        2.36155
H          5.14225        0.23581        2.09907
H          4.67748        0.58649       -0.98439
H          6.14084       -0.12924       -0.21928
H          5.17468       -1.07268       -1.39618
