32
1sa1msa1a1eda_203.log	Energy: -1011228.3091835
S         -0.59007       -1.55341       -0.20066
O          0.71100       -2.21092       -0.45496
O         -1.70396       -2.46192        0.04410
O         -0.42795       -0.76543        1.20761
O         -0.87638       -0.49740       -1.20831
H          0.38640       -0.21222        1.15456
H         -2.23204        0.36821       -0.86248
S          3.05198        0.22144        0.19670
O          3.97538       -0.29566        1.18656
O          1.76672        0.75852        0.68007
O          2.78021       -0.81812       -0.94828
H          1.94593       -1.38944       -0.77051
C          3.85652        1.49578       -0.74358
H          4.12477        2.28626       -0.04227
H          4.74980        1.06628       -1.19674
H          3.16484        1.85765       -1.50323
N         -4.48317       -1.41830        0.24669
H         -5.12496       -1.85938       -0.40470
H         -4.88566       -1.51495        1.17365
H         -3.61167       -1.95941        0.23198
H         -3.46776        2.05302        1.24841
H         -2.18674        0.82588        1.45664
H         -1.18976        3.11277        1.31050
H         -0.68130        2.08105       -0.02538
H         -2.57872        4.29679       -0.18457
H         -1.36947        3.89183       -1.20704
H         -3.78214        0.15465       -0.23738
H         -3.36506        1.59302       -1.11896
C         -2.59801        1.57956        0.78319
C         -1.54023        2.60756        0.40202
N         -3.05204        0.88871       -0.44780
N         -2.09288        3.51384       -0.60790
