41
1sa1msa1tma1eda_166.log	Energy: -1085203.7588312
S         -0.07010        1.89359        0.12508
O         -0.18720        3.09038       -0.67980
O         -0.29955        0.61121       -0.63079
O          1.16877        1.74346        0.92156
O         -1.20798        1.90385        1.27098
H         -2.06021        1.56873        0.91603
S         -3.16371       -0.69676       -0.42185
O         -3.43540        0.50851        0.37004
O         -2.51931       -1.80815        0.26935
O         -2.36415       -0.30482       -1.71900
H         -1.49703        0.15399       -1.41043
C         -4.67995       -1.24862       -1.15680
H         -5.32957       -1.56460       -0.34020
H         -5.11922       -0.41474       -1.70314
H         -4.45437       -2.08367       -1.81943
H          4.92700       -0.43387       -2.44439
H          3.41362       -1.16893       -2.98718
H          3.08150        1.16706       -2.27872
H          2.13395        0.05466       -1.30120
H          4.61476        1.35311       -0.45461
H          3.11863        1.46472        0.20137
H          4.55988       -2.66205       -1.50625
H          4.55856       -1.53300       -0.31830
C          3.94120       -0.79460       -2.10382
C          3.15746        0.37469       -1.51964
N          4.04357       -1.87735       -1.12360
N          3.76417        0.83072       -0.26585
N          1.17749       -0.96506        1.55611
C          2.46376       -0.99181        2.29578
H          3.26417       -0.78197        1.58334
H          2.44157       -0.20870        3.05425
H          2.58629       -1.97109        2.76313
C          0.00285       -0.97091        2.46796
H         -0.00646       -0.03581        3.02815
H         -0.90476       -1.05324        1.86937
H          0.08676       -1.82788        3.14008
C          1.08766       -2.04971        0.54264
H          0.18951       -1.88034       -0.05014
H          1.98602       -2.03485       -0.08248
H          1.01164       -3.00323        1.07119
H          1.16278       -0.04159        1.07583
