27
1sa1msa1a1ma_46.log	Energy: -951833.5975946
S          2.06435       -0.88814       -0.00637
O          3.17751       -0.03995       -0.40996
O          1.72500       -0.90882        1.42232
O          0.85496       -0.64222       -0.86186
O          2.49474       -2.42415       -0.29812
H          2.99660       -2.43707       -1.12445
S         -2.41903       -0.17553       -0.09515
O         -2.19326        0.97333       -0.96370
O         -2.30982        0.07174        1.34978
O         -1.51416       -1.38341       -0.51025
H         -0.51755       -1.11955       -0.62021
C         -4.01640       -0.88024       -0.40751
H         -4.09585       -1.08833       -1.47399
H         -4.11089       -1.79161        0.18199
H         -4.75429       -0.13933       -0.09921
N          0.15990        1.30083        1.98400
H          0.31376        1.83801        1.03741
H          0.32757        1.88738        2.79524
H         -0.80580        0.93683        1.97856
H          0.80304        0.48317        1.97376
N          0.52576        2.35171       -0.49334
H          0.56429        1.45733       -0.98496
C          1.74545        3.12482       -0.76024
H          1.87021        3.37413       -1.82000
H          1.72622        4.05481       -0.18500
H          2.60856        2.53297       -0.44747
H         -0.30466        2.82264       -0.84125
