32
1sa1msa1a1eda_292.log	Energy: -1011223.8717440
S          0.13419       -0.94952        0.19975
O         -0.54988        0.17670        0.88342
O          1.16322       -1.60755        1.00560
O         -0.97285       -2.07408       -0.04139
O          0.63554       -0.53697       -1.14158
H         -1.77963       -1.65053       -0.42352
H          2.16807       -0.97025       -1.36882
S         -3.62612        0.55499       -0.26082
O         -3.15777       -0.69159       -0.87909
O         -4.76567        1.22982       -0.83792
O         -2.43182        1.59144       -0.20943
H         -1.60759        1.12323        0.12901
C         -3.92697        0.21024        1.46050
H         -4.71983       -0.53695        1.50672
H         -3.00208       -0.17363        1.89494
H         -4.23639        1.13648        1.94414
N          3.21235       -1.16251       -1.33625
H          3.74701       -0.33415       -1.65964
H          3.44653       -2.00559       -1.85073
H          3.47956       -1.22918       -0.33002
H          5.19680        2.15256        0.83135
H          3.98891        2.79542       -0.28024
H          2.94763        1.75272        1.67681
H          2.44295        0.99544        0.17526
H          4.43635       -0.14857        2.00836
H          2.91972       -0.70006        1.68465
H          5.43624        1.71496       -1.65905
H          5.66842        0.45001       -0.66556
C          4.41043        1.86767        0.11667
C          3.29758        1.12278        0.84774
N          4.96220        1.09359       -1.01198
N          3.72343       -0.21192        1.28781
