40
1sa1msa2eda_02.log	Energy: -1095303.9454149
S         -2.50256        0.80766        0.46451
O         -3.65394       -0.01265        0.79389
O         -2.59143        2.25497        0.65744
O         -1.22189        0.29173        1.11057
O         -2.24648        0.54268       -1.10826
H         -1.38085        0.99191       -1.36714
S          2.86604       -0.55217        0.20553
O          2.99471        0.85876        0.67102
O          2.01032       -0.66297       -1.00708
O          2.43568       -1.48748        1.27307
C          4.51076       -1.04210       -0.27551
H          4.85696       -0.35880       -1.05094
H          5.15131       -0.98504        0.60465
H          4.46249       -2.06354       -0.65309
H         -0.54330       -4.12055        0.15694
H         -1.27692       -3.36132        1.59156
H         -2.94391       -3.86227       -0.28359
H         -2.91710       -2.17720        0.23364
H         -2.32159       -3.13974       -2.34182
H         -2.32850       -1.57862       -1.80421
H          0.76668       -2.15182        0.84255
H          0.04048       -1.94170       -0.63093
C         -1.06140       -3.23285        0.52878
C         -2.33469       -2.95255       -0.27529
N         -0.14990       -2.07950        0.36815
N         -1.97802       -2.51506       -1.62538
H         -0.60072       -1.18954        0.69945
H         -0.68126        3.39564       -0.00530
H          0.92925        4.12702        0.25314
H          0.64120        3.52535       -2.07631
H          1.96388        2.60275       -1.35065
H          0.18768        1.46292       -2.81990
H          0.78408        0.68450       -1.52712
H          1.60083        1.75598        0.97767
H          0.57963        2.63647        1.98735
C          0.39493        3.20940       -0.00559
C          0.87306        2.72476       -1.36824
N          0.65706        2.20705        1.06776
N          0.20963        1.48816       -1.80482
H         -0.06910        1.43495        1.05335
