30
1sa1msa2ma_33.log	Energy: -976493.1929895
S          1.63731       -1.63443       -0.14869
O          0.90434       -0.64260       -0.98199
O          2.61930       -2.43602       -0.85070
O          2.09692       -1.03040        1.11770
O          0.41084       -2.65379        0.26288
H          0.80757       -3.48526        0.55542
S         -2.46647        0.07117       -0.00942
O         -3.65796        0.82630       -0.32649
O         -1.76402        0.35675        1.24793
O         -1.46184        0.26684       -1.21731
H         -0.56293       -0.17453       -1.06257
C         -2.80831       -1.67197       -0.04346
H         -3.49557       -1.88083        0.77714
H         -3.26888       -1.90392       -1.00354
H         -1.86406       -2.20406        0.08930
N          1.01626        2.32929       -1.22862
H          1.38091        1.45178       -1.59628
C          1.82013        3.47048       -1.67450
H          1.87328        3.57214       -2.76509
H          1.40181        4.39273       -1.26323
H          2.83837        3.36384       -1.29181
H          0.06306        2.39697       -1.57650
N          0.83643        1.41163        1.41634
H          1.38228        0.52355        1.39886
H          0.93776        1.85410        0.45371
C          1.26465        2.31467        2.49930
H          0.67142        3.22909        2.46776
H          1.12778        1.82498        3.46346
H          2.31860        2.55870        2.36466
H         -0.15309        1.13080        1.50057
