30
1sa1msa1a1dma_64.log	Energy: -976494.1441683
S         -1.17302       -1.68942        0.09778
O         -0.34675       -0.88430        1.03225
O         -1.85056       -2.84126        0.66175
O         -2.01245       -0.79748       -0.73227
O         -0.03616       -2.29417       -0.92601
H         -0.33139       -3.17428       -1.19487
S          2.68235        0.43400        0.02131
O          3.94698        1.02355        0.39558
O          1.59995        1.32438       -0.42610
O          2.17480       -0.42516        1.24301
H          1.20155       -0.67510        1.15315
C          2.93289       -0.77636       -1.25605
H          3.69010       -1.47794       -0.90608
H          1.98257       -1.28032       -1.44029
H          3.27914       -0.24393       -2.14256
N         -4.26026        1.13123       -0.22260
H         -4.88341        1.03885        0.57355
H         -3.82356        0.22182       -0.37101
H         -4.84717        1.31603       -1.03007
N         -1.11283        1.76946       -0.04712
C         -1.44917        2.83159       -1.01745
C         -1.44328        2.10976        1.35460
H         -1.60375        0.89212       -0.30989
H         -0.89275        3.73563       -0.76573
H         -1.16884        2.49374       -2.01524
H         -2.52434        3.00548       -0.96572
H         -0.87598        2.99463        1.64749
H         -2.51557        2.29736        1.41262
H         -1.16921        1.26024        1.97946
H         -0.10413        1.54306       -0.11465
