35
1sa1msa1ma1eda_162.log	Energy: -1035886.2137980
S         -0.92455        0.26065        0.75639
O          0.51866        0.24563        1.16497
O         -1.87178        0.20022        1.85942
O         -1.15012        1.42630       -0.15404
O         -1.06660       -1.04783       -0.11701
H          0.25183        1.96284       -0.69736
H         -2.06713       -1.32302       -0.22875
S          3.36143       -0.64800       -0.20397
O          4.14226        0.26208        0.62081
O          2.74345       -0.05350       -1.40523
O          2.28663       -1.41497        0.62722
H          1.48438       -0.79362        0.87324
C          4.36881       -2.01342       -0.72153
H          5.18099       -1.60024       -1.32010
H          4.75733       -2.50364        0.17070
H          3.75361       -2.69179       -1.31135
N          1.24496        2.25332       -0.95431
H          1.76471        1.38359       -1.19122
C          1.89605        2.92982        0.19521
H          2.94226        3.12525       -0.03824
H          1.36646        3.85771        0.41024
H          1.82686        2.25614        1.04809
H          1.21954        2.84653       -1.78011
H         -5.46001       -1.46816        0.52301
H         -4.04525       -0.86185        1.42535
H         -5.26822        1.00891        0.41629
H         -3.65454        0.86394       -0.28149
H         -6.15725        0.09785       -1.59121
H         -4.93988        1.03100       -2.15884
H         -3.59784       -2.77846       -0.10824
H         -3.86168       -1.73502       -1.35483
C         -4.47575       -0.98625        0.42911
C         -4.63419        0.38091       -0.22472
N         -3.55681       -1.80201       -0.38356
N         -5.15038        0.22153       -1.58802
