28
1sa1msa1eda_80.log	Energy: -975731.8385682
S         -0.96807        1.89924       -0.04438
O         -2.05900        1.01229        0.38249
O         -0.13664        1.14149       -1.08616
O         -1.30078        3.24459       -0.43975
O          0.04681        2.06047        1.19918
H          0.43255        1.18878        1.41792
S          2.27318       -0.63012        0.03626
O          1.93676       -1.80014       -0.77443
O          1.42769       -0.41957        1.22037
O          2.30338        0.66981       -0.83487
H          1.32779        1.00058       -0.98966
C          3.97325       -0.72084        0.52591
H          4.07898       -1.61387        1.14228
H          4.58178       -0.79570       -0.37498
H          4.21335        0.17822        1.09253
H         -2.79538       -0.68117       -1.21226
H         -2.41526       -2.23287       -1.99980
H         -4.15097       -2.30914       -0.08257
H         -2.81362       -3.45630        0.08188
H         -2.87716       -0.84633        1.44925
H         -2.90710       -2.35137        2.14596
H         -0.61403       -0.49272       -0.97922
H         -0.91210       -1.46604        0.34348
C         -2.36025       -1.67054       -1.06706
C         -3.06913       -2.39082        0.08620
N         -0.93801       -1.44751       -0.69432
N         -2.60082       -1.81995        1.34173
H         -0.26783       -2.13404       -1.04190
