33
1sa1msa1ma1dma_11.log	Energy: -1001170.5394601
S          2.25484       -0.29225       -0.41115
O          1.44107       -0.01908        0.81895
O          1.41098        0.40480       -1.60852
O          3.54123        0.36958       -0.45897
O          2.26178       -1.75031       -0.68295
H          1.05126       -2.51894        0.08209
S         -2.21926       -0.20808       -0.36262
O         -2.30526        0.23400        1.03918
O         -1.91942       -1.65510       -0.53139
O         -1.28216        0.65071       -1.16287
H          0.44569        0.23293       -1.51751
C         -3.82385        0.02380       -1.10487
H         -4.53710       -0.59504       -0.56022
H         -4.08742        1.07832       -1.02192
H         -3.76390       -0.27990       -2.14987
N          0.19558       -2.92473        0.55491
H         -0.63383       -2.43463        0.13506
C          0.23608       -2.69900        2.01802
H         -0.68793       -3.06229        2.46783
H          1.09684       -3.21662        2.44148
H          0.34263       -1.62722        2.17650
H          0.13437       -3.91303        0.32182
N          0.11720        2.29278        0.60953
C          1.00972        3.27103       -0.04971
C         -0.56975        2.79015        1.81819
H         -0.57188        1.91923       -0.07111
H          1.78827        3.56986        0.65335
H          1.46527        2.78959       -0.91534
H          0.42917        4.14251       -0.35750
H          0.17704        3.03547        2.57486
H         -1.14496        3.68308        1.56571
H         -1.23882        2.00545        2.17083
H          0.67764        1.42746        0.83601
