35
1sa1msa1ma1eda_17.log	Energy: -1035902.5468090
S          2.76684        0.21618        0.32642
O          2.50534        1.38244        1.19343
O          2.68546       -1.07902        1.01337
O          2.00630        0.24795       -0.94320
O          4.30230        0.38811       -0.18311
H          4.86672        0.47902        0.59657
S         -2.43140       -0.95903        0.21083
O         -2.11250       -1.98547       -0.82091
O         -3.27403        0.14847       -0.26328
O         -1.16861       -0.49361        0.87479
C         -3.35430       -1.80611        1.48218
H         -4.26528       -2.19841        1.02945
H         -2.74046       -2.61610        1.87622
H         -3.59343       -1.08687        2.26562
N          0.63211       -2.14123       -0.68377
H          1.00526       -1.23200       -1.01975
H          0.80388       -2.08999        0.32439
C          1.35909       -3.26940       -1.29768
H          0.98510       -4.20734       -0.88762
H          1.19700       -3.25099       -2.37500
H          2.42086       -3.16039       -1.07787
H         -0.40267       -2.16805       -0.83340
H          0.25630        3.66472       -0.56697
H          0.57418        2.07461       -1.30227
H         -1.56588        3.27541       -2.14260
H         -1.80181        1.62446       -1.56658
H         -2.98232        3.92724       -0.48874
H         -3.17322        2.34623       -0.05625
H          0.81390        1.96187        1.05609
H         -0.77997        2.57439        1.24530
C         -0.12331        2.64681       -0.68889
C         -1.54442        2.63986       -1.25108
N         -0.14299        2.02733        0.66092
N         -2.49301        3.08184       -0.22737
H         -0.53441        1.05412        0.64310
