40
1sa1msa2eda_185.log	Energy: -1095280.9622594
S          0.02373       -1.12027        1.04660
O         -0.69308       -0.14571        1.86874
O          0.27510       -0.58184       -0.34667
O          1.29933       -1.60900        1.62255
O         -0.85981       -2.39987        0.84542
H          2.50377       -0.88405        0.73709
H         -1.69714       -2.13624        0.26940
S          0.74216        2.82136       -0.17266
O          0.72759        4.07828       -0.88805
O          2.05097        2.19125        0.08234
O         -0.17163        1.80586       -0.94904
H         -0.00201        0.82592       -0.66202
C         -0.06861        3.00737        1.39745
H          0.56186        3.65243        2.01049
H         -1.03613        3.47566        1.21560
H         -0.19061        2.01630        1.84284
H         -3.49971       -0.39347        0.93217
H         -2.54687        0.43866       -0.28227
H         -4.91220        1.12559       -0.45374
H         -4.42820        0.25703       -1.91409
H         -6.03067       -0.87642        0.26224
H         -6.41788       -0.75614       -1.32127
H         -3.64941       -2.23509       -0.69697
H         -2.47137       -1.50934       -1.56942
C         -3.33514       -0.30573       -0.14706
C         -4.61975        0.13834       -0.84145
N         -2.84790       -1.60790       -0.62944
N         -5.64732       -0.89035       -0.67753
H          4.57441       -2.50956       -0.67385
H          3.87294       -2.61836       -2.27412
H          4.03823       -0.27154       -1.76124
H          2.31136       -0.70103       -1.69424
H          4.07754       -0.29835        0.62080
H          2.78210        0.64447        0.12993
H          2.42431       -3.12507        0.24720
H          1.76594       -3.16992       -1.23746
C          3.64432       -2.35317       -1.23605
C          3.28644       -0.86363       -1.23205
N          2.64119       -3.27062       -0.73420
N          3.17461       -0.31964        0.15011
