40
1sa1msa2eda_163.log	Energy: -1095284.9478606
S          0.03610       -1.34790       -0.55564
O          1.31429       -1.88987       -0.99924
O         -1.13690       -2.22173       -0.75132
O          0.07680       -0.78668        0.82546
O         -0.19404       -0.06741       -1.52737
H          1.73274       -0.28161        1.29303
H         -1.06367        0.33648       -1.29191
S         -3.51878        0.12391        0.21544
O         -4.86899        0.63632        0.22131
O         -2.47805        0.90231       -0.47686
O         -3.56102       -1.33439       -0.38502
H         -2.63412       -1.69865       -0.54737
C         -2.96013       -0.13513        1.88440
H         -2.94587        0.84082        2.37152
H         -3.66977       -0.79978        2.37688
H         -1.95688       -0.56622        1.84216
H         -0.10776        2.75023       -1.10831
H          0.48721        4.13852       -0.20553
H          2.07954        3.48757       -1.90966
H          2.77781        3.33132       -0.28800
H          1.64326        1.01367       -1.70949
H          3.24825        1.38493       -1.69664
H         -0.20130        2.83507        1.46911
H          0.11673        1.42708        0.73969
C          0.64557        3.06903       -0.37465
C          2.03831        2.90669       -0.97762
N          0.49410        2.36018        0.90397
N          2.37608        1.49457       -1.18888
H          4.61843        0.41867        1.62334
H          3.70741       -0.58103        2.78384
H          5.04282       -1.96294        1.22785
H          3.31647       -2.29259        1.05374
H          4.89045       -1.75398       -1.00439
H          3.30804       -1.34771       -0.99164
H          2.28909        1.17278        1.82118
H          2.60176        0.71585        0.26771
C          3.80989       -0.30885        1.72939
C          4.09747       -1.53949        0.87512
N          2.56106        0.34456        1.28463
N          4.20291       -1.17742       -0.53534
