28
1sa1msa1eda_164.log	Energy: -975720.4151537
S         -0.81123       -1.37724        0.01203
O         -2.23041       -1.81292        0.15670
O          0.15096       -2.45487       -0.15816
O         -0.69514       -0.27542       -0.97328
O         -0.53832       -0.69519        1.45973
H         -3.16068        0.62101       -1.42577
H          0.37707       -0.34812        1.45981
S          3.03480        0.38381        0.11166
O          2.00177        0.42992        1.13407
O          4.40883        0.10142        0.48734
O          3.03400        1.84459       -0.60729
H          3.93800        2.18837       -0.56764
C          2.51101       -0.65023       -1.22431
H          2.36140       -1.65153       -0.81585
H          1.55205       -0.27555       -1.58846
H          3.28863       -0.63176       -1.98712
H         -2.11323        1.07328        1.24043
H         -3.04422        2.56361        1.40063
H         -4.46287        0.42636        1.18158
H         -4.83855        1.70821       -0.00650
H         -3.15485       -0.74993       -0.41549
H         -4.57500       -0.26537       -1.25304
H         -2.02501        3.25994       -0.50326
H         -1.27932        1.79005       -0.68776
C         -2.78506        1.75552        0.71055
C         -4.07472        1.00960        0.34450
N         -2.16410        2.25921       -0.51248
N         -3.75039        0.08318       -0.77148
