40
1sa1msa2eda_174.log	Energy: -1095282.1375281
S          0.86749       -1.31784       -0.97187
O         -0.60786       -1.36623       -1.16779
O          1.61522       -2.47041       -1.44914
O          1.38603       -0.01176       -1.47854
O          1.01968       -1.25110        0.62242
H          0.06416        1.07752       -1.50256
H          2.00737       -1.39530        0.82846
S         -3.31173       -0.44183        0.53477
O         -3.23029        0.36257       -0.69456
O         -2.89772        0.21410        1.76564
O         -2.56535       -1.80369        0.33024
H         -1.71027       -1.69071       -0.23503
C         -4.97545       -1.03362        0.71389
H         -5.26595       -1.53151       -0.21037
H         -4.99967       -1.72294        1.55768
H         -5.60526       -0.16492        0.90714
H         -1.47620        2.26646        0.70021
H         -0.08616        1.17620        0.77346
H          0.55403        3.57369        1.29990
H          1.41903        2.93768       -0.09500
H         -0.82771        4.81835       -0.18489
H          0.61785        4.90115       -0.94721
H         -1.60668        1.07407       -1.23663
H         -0.83789        2.51464       -1.70377
C         -0.50846        2.03586        0.24917
C          0.42922        3.23856        0.26256
N         -0.74892        1.64507       -1.16502
N         -0.10596        4.26539       -0.63514
H          4.74044        0.47326       -0.46313
H          5.25565        1.29064        1.00371
H          5.64572       -1.06858        1.25611
H          4.39492       -0.55980        2.39801
H          3.79907       -1.90272       -0.15765
H          3.76542       -2.59784        1.31266
H          2.54115        0.82528        0.01155
H          2.80104        1.23476        1.58278
C          4.48951        0.62099        0.59396
C          4.60665       -0.71613        1.33345
N          3.19296        1.28053        0.64704
N          3.64925       -1.71047        0.83224
