28
1sa1msa1eda_75.log	Energy: -975730.8787235
S          1.70308       -1.27762       -0.17338
O          0.87068       -2.09258       -1.05383
O          2.42114       -0.14630       -0.73999
O          0.93940       -0.86381        1.06817
O          2.87461       -2.25412        0.38262
H          2.50403       -3.14207        0.47535
S         -2.32314       -0.37936        0.08987
O         -1.46147        0.77918       -0.17511
O         -3.69051       -0.15288        0.50540
O         -1.62960       -1.26581        1.20549
H         -0.62737       -1.20053        1.13857
C         -2.29304       -1.42633       -1.34485
H         -2.75252       -0.86777       -2.16120
H         -1.25138       -1.67413       -1.56144
H         -2.87339       -2.31994       -1.11483
H          1.89948        3.56788        0.89889
H          2.61098        2.02543        0.31013
H          1.59389        3.38326       -1.56174
H          0.82599        1.81004       -1.35804
H         -0.38749        4.37568       -0.94819
H         -1.10604        2.88502       -1.01405
H          0.98198        2.00548        2.32033
H         -0.18182        2.16814        1.12798
C          1.69405        2.60202        0.43127
C          0.95883        2.79125       -0.89528
N          0.77814        1.84758        1.33634
N         -0.33403        3.41728       -0.63193
H          0.82293        0.81015        1.16464
