41
1sa1msa1tma1eda_01.log	Energy: -1085225.1027061
S          0.79998       -1.91798       -0.42771
O          0.92208       -1.01135        0.76764
O          0.84150       -0.92651       -1.69059
O          1.94554       -2.79187       -0.61994
O         -0.53482       -2.55796       -0.41353
H         -1.45818       -1.57842        0.63568
S         -0.86947        1.96235       -0.20007
O          0.52653        2.41721       -0.07271
O         -1.50932        1.61006        1.09977
O         -1.04465        0.86756       -1.20323
H          0.13785       -0.23047       -1.57486
C         -1.80771        3.33820       -0.83974
H         -1.36578        3.63428       -1.79122
H         -2.83918        3.01415       -0.98000
H         -1.75110        4.15140       -0.11594
H         -3.97799        0.46612        0.45921
H         -5.12488       -0.86772        0.40193
H         -3.73194       -0.92122        2.45276
H         -3.50982       -2.38876        1.47219
H         -1.67698       -0.04143        1.32627
H         -1.39921       -1.39421        2.26552
H         -2.69377       -0.47018       -1.20855
H         -3.46006       -1.93659       -1.15207
C         -4.05999       -0.61730        0.32507
C         -3.35434       -1.30630        1.50131
N         -3.56946       -0.94117       -0.99619
N         -1.89289       -1.06399        1.43895
N          3.08633        0.50820        0.47657
C          3.22399        1.04590       -0.90218
H          3.10957        0.22250       -1.60687
H          2.42768        1.77284       -1.06031
H          4.20898        1.50936       -1.00088
C          3.12404        1.58507        1.49489
H          2.31558        2.28332        1.27666
H          2.97347        1.13823        2.47843
H          4.09687        2.08129        1.45487
C          4.07870       -0.56232        0.74507
H          3.91785       -0.94457        1.75331
H          3.91536       -1.37244        0.03251
H          5.08551       -0.14890        0.65040
H          2.14108        0.03355        0.55445
