30
1sa1msa2ma_109.log	Energy: -976488.9934200
S          0.72974       -0.69270       -0.61095
O          1.06623       -1.39954        0.64476
O          0.12745        0.64899       -0.32569
O          1.85824       -0.60877       -1.54341
O         -0.38470       -1.53529       -1.37096
H         -1.22117       -1.53071       -0.84462
S         -3.20326        0.10930        0.44472
O         -3.35375        0.34671        1.86611
O         -2.68608       -1.19856        0.01722
O         -2.35076        1.24546       -0.24342
H         -1.36023        1.00567       -0.26907
C         -4.76160        0.38316       -0.36246
H         -5.46091       -0.34688        0.04627
H         -5.08951        1.39783       -0.13751
H         -4.62779        0.23804       -1.43369
N          2.71451        1.96663        0.51721
H          1.71614        1.74513        0.53873
C          3.03880        2.51241       -0.81071
H          2.51188        3.44731       -1.03040
H          4.11521        2.69401       -0.88255
H          2.75512        1.77173       -1.56180
H          2.88878        2.65563        1.24219
N          3.67676       -0.61173        0.58942
H          3.41769        0.43628        0.65023
H          2.80658       -1.10465        0.88359
C          4.87642       -0.98163        1.35806
H          5.06959       -2.04965        1.25532
H          5.73497       -0.41795        0.99176
H          4.71026       -0.74527        2.40912
H          3.73617       -0.82202       -0.41044
