33
1sa1msa1a1tma_67.log	Energy: -1001148.5923227
S          0.21430        1.27248        0.14287
O         -1.11283        1.89987        0.30577
O          1.31984        2.02506        0.75540
O          0.18057       -0.09179        0.99962
O          0.50001        0.87738       -1.25793
H         -0.66050       -0.57088        0.80241
H          2.25325        1.18730       -1.61788
S         -3.47351       -0.59848        0.08740
O         -4.35406       -0.57336        1.23744
O         -2.15340       -1.22933        0.24499
O         -3.28723        0.83939       -0.52808
H         -2.42230        1.27786       -0.21529
C         -4.30034       -1.39962       -1.26514
H         -4.49947       -2.42507       -0.95260
H         -5.23290       -0.86855       -1.45521
H         -3.64547       -1.37475       -2.13527
N          3.15945        1.40695       -1.15789
H          3.54929        0.46934       -0.74443
H          2.84981        1.98986       -0.36249
H          3.80579        1.89254       -1.77071
N          3.82590       -0.95081       -0.00027
C          3.59846       -0.69932        1.42852
H          4.33307        0.02448        1.79289
H          2.59682       -0.28988        1.57549
H          3.69493       -1.62519        2.01539
C          2.80718       -1.86369       -0.53253
H          1.81545       -1.43481       -0.37329
H          2.96522       -2.00271       -1.60593
H          2.85470       -2.84654       -0.04000
C          5.17282       -1.46546       -0.23757
H          5.33127       -1.60940       -1.31025
H          5.91291       -0.75058        0.13329
H          5.33595       -2.42932        0.26926
