32
1sa1msa1a1eda_335.log	Energy: -1011205.1183223
S         -1.89749        0.88222       -0.22205
O         -0.47981        0.82613        0.13462
O         -2.43739        2.10997       -0.75525
O         -2.19027       -0.23936       -1.29359
O         -2.69261        0.43574        1.04266
H         -1.68587       -1.06980       -1.07406
H         -3.68081        0.80049        0.99146
S          0.61491       -2.36180       -0.09846
O          1.63772       -2.15847       -1.10238
O         -0.78939       -2.37487       -0.54019
O          0.75579       -1.32099        1.09207
H          0.33276       -0.45794        0.82828
C          0.92939       -3.85609        0.80101
H          0.88579       -4.66969        0.07655
H          1.92476       -3.78240        1.23858
H          0.16385       -3.96981        1.56733
N         -5.04839        1.47150        0.81009
H         -5.76139        0.86341        0.41915
H         -4.86226        2.21375        0.13862
H         -5.41933        1.89291        1.65601
H          4.77612        1.62325       -0.95048
H          4.82146        0.63597        0.50106
H          2.68456        0.28895       -0.61584
H          2.40412        1.13639        0.91126
H          2.39298        2.39368       -1.72906
H          1.17424        2.30298       -0.64589
H          4.12292        3.47115        0.49664
H          4.43405        2.55291        1.80329
C          4.33866        1.51053        0.05064
C          2.83794        1.24477       -0.09076
N          4.68749        2.69345        0.82969
N          2.18161        2.38171       -0.73600
