41
1sa1msa1tma1eda_79.log	Energy: -1085215.6745395
S          2.63202        0.45603       -0.06282
O          2.37515        1.80785       -0.62149
O          1.70738        0.11328        1.02838
O          2.78936       -0.57955       -1.08807
O          4.06420        0.57372        0.70241
H          4.74755        0.71936        0.03433
S         -2.96754       -0.31671        0.01363
O         -1.94647       -0.57450       -1.05126
O         -3.37920        1.09248        0.09747
O         -2.51959       -0.89708        1.31561
C         -4.41888       -1.24434       -0.46219
H         -4.77375       -0.85331       -1.41609
H         -4.15015       -2.29698       -0.55412
H         -5.17379       -1.10723        0.31251
H          0.09293       -3.85773        1.31944
H         -0.99994       -3.73292       -0.08488
H          1.10102       -4.86481       -0.70278
H          0.96306       -3.33482       -1.56707
H          3.10627       -4.06402       -0.08683
H          2.71945       -2.48963       -0.36390
H         -0.90499       -1.66164        1.14379
H          0.75694       -1.51129        0.84635
C         -0.04391       -3.40784        0.33421
C          1.12411       -3.77822       -0.57322
N         -0.12254       -1.94084        0.51610
N          2.38380       -3.36658        0.02897
H         -0.40767       -1.46824       -0.35869
N         -0.04860        2.83119       -0.04807
C          0.13674        4.29518        0.06785
H          0.77799        4.50592        0.92422
H          0.61068        4.66563       -0.84157
H         -0.83755        4.76929        0.20323
C         -0.83604        2.47218       -1.25937
H         -0.32521        2.88337       -2.13079
H         -0.90841        1.38639       -1.33356
H         -1.84473        2.87524       -1.16009
C         -0.63083        2.25129        1.19256
H         -0.61500        1.16752        1.11048
H         -0.01277        2.55406        2.03798
H         -1.66187        2.58925        1.29929
H          0.90601        2.41180       -0.18667
