30
1sa1msa2ma_117.log	Energy: -976481.4565983
S         -1.48194        0.12402       -0.38926
O         -1.39219       -1.27150        0.05383
O         -0.35060        0.59113       -1.21079
O         -2.76462        0.26793       -1.31685
O         -1.71819        1.06136        0.76967
H         -3.57166        0.01541       -0.75084
H         -0.43206        1.89708        0.93954
S          3.04860       -0.77254        0.21220
O          2.54317        0.42308        0.87569
O          3.90332       -1.68304        0.95218
O          3.90513       -0.23905       -1.06198
H          4.75119       -0.70926       -1.06886
C          1.72222       -1.63046       -0.57788
H          1.20849       -0.93340       -1.24437
H          2.14673       -2.48696       -1.10120
H          1.01849       -1.94283        0.19673
N         -4.64221       -0.43430        0.44946
H         -4.18504       -0.00247        1.24924
C         -4.66154       -1.89627        0.59246
H         -5.19685       -2.23975        1.48616
H         -5.13465       -2.33385       -0.28983
H         -3.62841       -2.24775        0.63177
H         -5.58122       -0.05424        0.39393
N          0.52276        2.39919        0.92470
H          0.69769        2.82861        1.83019
C          0.56375        3.38408       -0.18075
H          1.55229        3.84070       -0.23643
H          0.33675        2.84169       -1.09817
H         -0.19514        4.14672       -0.00581
H          1.22845        1.65890        0.78476
