29
1sa1msa1tma_35.log	Energy: -965648.2584830
S          0.78670       -1.46049        0.08521
O          2.16368       -1.93206       -0.05908
O         -0.19895       -2.36619        0.65575
O          0.75020       -0.10028        0.75296
O          0.34892       -1.14584       -1.44487
H          2.02598        0.61174        0.37008
H         -0.56420       -0.79455       -1.43593
S         -3.03724        0.42942       -0.10036
O         -2.15397        0.09868       -1.20642
O         -4.46463        0.19170       -0.22283
O         -2.85188        2.02419        0.18021
H         -3.73040        2.42791        0.13387
C         -2.39992       -0.25051        1.40305
H         -2.35667       -1.33346        1.27374
H         -1.38298        0.12353        1.54005
H         -3.07110        0.03887        2.21111
N          2.94710        1.09870        0.06346
C          3.09008        0.85242       -1.39367
H          3.14903       -0.22421       -1.55228
H          2.20467        1.23640       -1.90061
H          3.98958        1.35486       -1.75869
C          2.80044        2.53696        0.36934
H          1.94178        2.92808       -0.17751
H          2.63000        2.65687        1.43981
H          3.70706        3.07146        0.07446
C          4.04361        0.46405        0.83346
H          3.87509        0.64431        1.89579
H          4.00823       -0.60847        0.63955
H          5.00048        0.89375        0.52584
