32
1sa1msa1a1eda_256.log	Energy: -1011227.6735791
S         -0.50950       -1.19285       -0.41390
O          0.88663       -1.43242       -0.94154
O         -1.53863       -1.80732       -1.28318
O         -0.56976       -1.77349        0.97953
O         -0.74751        0.30468       -0.33179
H          0.83993       -2.17734        1.37527
H         -2.24986        0.52320       -0.74079
S          3.05961        1.04826        0.00367
O          4.31179        1.73102       -0.24594
O          3.01201        0.10939        1.14198
O          2.63155        0.30830       -1.30519
H          1.85518       -0.37433       -1.16188
C          1.76535        2.23888        0.26057
H          1.97224        2.74225        1.20571
H          1.79710        2.94499       -0.56944
H          0.81312        1.70085        0.28318
N          1.90649       -2.38415        1.43497
H          2.13608       -2.92042        0.60040
H          2.17467       -2.88218        2.27776
H          2.39508       -1.46659        1.36332
H         -4.83179       -0.68845        0.11036
H         -3.22738       -0.79989        0.87174
H         -4.67058        0.87389        2.06403
H         -3.25220        1.63066        1.33309
H         -5.99061        1.78930        0.30842
H         -4.91993        2.99670        0.56525
H         -3.10034       -0.59953       -1.53562
H         -3.80612        0.96544       -1.40330
C         -3.91089       -0.14133        0.33143
C         -4.20199        1.13607        1.10703
N         -3.26335        0.22904       -0.94841
N         -5.00596        2.03110        0.27217
