39
1sa1msa1dma1tma_28.log	Energy: -1050486.2546757
S         -2.67271       -0.30210       -0.21725
O         -2.96302        0.78091       -1.16087
O         -2.43146       -1.61503       -0.85713
O         -1.65957        0.02398        0.80250
O         -4.02160       -0.49431        0.68597
H         -4.75896       -0.65978        0.08320
S          2.71752       -0.05130       -0.24141
O          2.95632        1.24830       -0.89691
O          2.80715       -1.24005       -1.10346
O          1.42015       -0.04058        0.53369
C          3.99462       -0.22595        1.00087
H          4.95914       -0.21741        0.49229
H          3.92400        0.60935        1.69848
H          3.84705       -1.17292        1.52101
N          0.03079       -2.37607        0.13620
C         -0.23813       -2.77210        1.53381
C          0.74016       -3.39530       -0.66384
H         -0.87898       -2.14230       -0.31467
H          0.71112       -2.95969        2.03837
H         -0.76653       -1.94946        2.01523
H         -0.85323       -3.67360        1.54376
H          1.70665       -3.60289       -0.20534
H          0.13015       -4.29972       -0.70734
H          0.91368       -2.99583       -1.66120
H          0.57659       -1.48051        0.16914
N         -0.18105        2.40820        0.21165
C         -1.45866        2.99941        0.68917
H         -2.28240        2.54126        0.14376
H         -1.56325        2.79658        1.75468
H         -1.42496        4.07582        0.50703
C          0.98678        3.03193        0.88656
H          0.91650        2.83232        1.95618
H          1.89725        2.60040        0.47117
H          0.95454        4.10812        0.70225
C         -0.06415        2.49072       -1.27244
H          0.88202        2.03263       -1.56394
H         -0.91610        1.96564       -1.70648
H         -0.08079        3.54512       -1.55792
H         -0.18629        1.39834        0.44887
