35
1sa1msa1ma1eda_260.log	Energy: -1035880.9541956
S         -0.18902       -0.81890       -0.61539
O         -0.46144       -2.00187        0.20059
O          1.08994       -0.85838       -1.35589
O         -1.34645       -0.44698       -1.47471
O         -0.09255        0.45627        0.36779
H         -2.66564       -1.21478       -0.91132
H          0.80681        0.48207        0.77863
S          3.63878        0.14596        0.44904
O          4.92941        0.12205        1.09578
O          2.45931        0.50248        1.24873
O          3.40907       -1.27425       -0.21283
H          2.49960       -1.29517       -0.63240
C          3.67560        1.23669       -0.95832
H          3.80385        2.25049       -0.57741
H          4.51694        0.94905       -1.58855
H          2.72830        1.13069       -1.48996
N         -2.62714        2.33908       -0.85276
H         -2.03403        1.56249       -1.14418
C         -1.88274        3.23632        0.03348
H         -0.99289        3.68506       -0.42777
H         -2.53929        4.04255        0.37405
H         -1.55126        2.67576        0.91068
H         -2.90217        2.82816       -1.69826
H         -4.33246       -2.08373        1.41396
H         -2.53731       -2.03265        1.32338
H         -3.65066        0.01891        2.47520
H         -2.53345        0.38154        1.16202
H         -5.33493        0.89944        1.18421
H         -4.14643        1.40334        0.11590
H         -3.73069       -2.53132       -0.83304
H         -4.31748       -0.94088       -0.70430
C         -3.46522       -1.55014        1.01611
C         -3.50622       -0.06401        1.39371
N         -3.55213       -1.59866       -0.47062
N         -4.55069        0.60362        0.61842
