23
1sa1msa1ma_27.log	Energy: -916332.7276548
S          1.18724        0.62630       -0.00056
O         -0.02872        1.42858       -0.22546
O          2.29017        1.33894        0.66722
O          0.79794       -0.51772        1.05729
O          1.64698       -0.07665       -1.22905
H         -0.08858       -0.88965        0.82104
H          3.30824       -0.29578       -1.08567
S         -2.76780       -0.39203       -0.07090
O         -1.69379       -1.28946        0.37577
O         -4.03052       -0.96933       -0.46598
O         -2.24296        0.48076       -1.28541
H         -1.34330        0.85017       -1.05658
C         -3.01611        0.82000        1.20945
H         -3.35355        0.28698        2.09897
H         -2.06327        1.32108        1.38898
H         -3.77420        1.52418        0.86732
N          4.16736       -0.21510       -0.47508
H          5.00170       -0.00884       -1.01837
C          4.29706       -1.42777        0.37016
H          5.09644       -1.28630        1.09669
H          3.34622       -1.57136        0.88428
H          4.50725       -2.28783       -0.26445
H          3.88188        0.60025        0.10396
