27
1sa1msa1a1ma_153.log	Energy: -951819.6725257
S          1.72558        0.70308       -0.68092
O          3.01273        0.63777       -1.34793
O          0.59926        1.35697       -1.32676
O          1.26018       -0.77512       -0.35501
O          1.95416        1.34144        0.72759
H          2.10800       -1.35256       -0.14734
H          1.04080        1.75353        1.10869
S         -3.07048       -0.34599        0.04264
O         -2.43889        0.32337        1.16751
O         -4.29249        0.19559       -0.52756
O         -3.40473       -1.86412        0.52099
H         -4.35752       -2.00066        0.41830
C         -1.86095       -0.65368       -1.21002
H         -1.49384        0.31386       -1.55856
H         -1.02777       -1.19629       -0.76173
H         -2.33683       -1.21603       -2.01271
N         -0.25363        2.34373        1.54093
H         -0.29069        2.68976        2.49435
H         -0.99145        1.64581        1.42589
H         -0.46766        3.11431        0.91426
N          3.51390       -1.97649        0.11283
H          3.60042       -2.98289        0.01462
C          4.02012       -1.52154        1.41693
H          5.07814       -1.75771        1.57303
H          3.88295       -0.44046        1.48569
H          3.43178       -1.98777        2.21019
H          4.04355       -1.54288       -0.64063
