36
1sa1msa2dma_10.log	Energy: -1025832.0934375
S          2.69578       -0.15821       -0.18330
O          2.50989       -1.48565       -0.80806
O          2.94767        0.93341       -1.12109
O          1.64426        0.13141        0.82076
O          4.02156       -0.29014        0.75626
H          4.78402       -0.41831        0.17592
S         -2.68110        0.13920        0.08512
O         -2.53034        1.48240        0.71090
O         -2.88094       -0.96903        1.03019
O         -1.54592       -0.12546       -0.86197
C         -4.14832        0.23650       -0.92659
H         -4.29039       -0.72783       -1.41475
H         -4.99068        0.46250       -0.27229
H         -4.01204        1.02688       -1.66489
N         -0.04668       -2.25398       -0.01540
C         -0.68458       -3.33709       -0.78836
C         -0.06967       -2.46663        1.45044
H          0.93314       -2.10083       -0.33164
H         -1.72977       -3.41161       -0.48456
H         -0.62497       -3.09297       -1.84898
H         -0.16764       -4.27843       -0.59479
H         -1.10815       -2.46219        1.78282
H          0.41688       -3.41696        1.67748
H          0.47639       -1.64494        1.91219
H         -0.55618       -1.36903       -0.24795
N          0.05064        2.27224        0.19323
C          0.58622        3.31599        1.08820
C          0.14716        2.59555       -1.24848
H          0.58677        1.39610        0.37512
H          0.03935        4.24697        0.93066
H          0.46631        2.98699        2.12034
H          1.64536        3.46057        0.87044
H         -0.37587        3.53487       -1.43723
H          1.20006        2.66837       -1.52283
H         -0.32470        1.78138       -1.79797
H         -0.94473        2.05362        0.43191
