38
1sa1msa1dma1eda_378.log	Energy: -1060531.2626135
S         -1.22390       -0.17448        0.34279
O         -2.22335        0.87267        0.52665
O         -0.09289       -0.14246        1.29608
O         -1.84399       -1.53613        0.27716
O         -0.61593        0.10634       -1.10964
H         -3.33371       -1.37348       -0.04143
H          0.22963       -0.39250       -1.21918
S          2.70470       -1.47653       -0.15916
O          3.76592       -0.49362       -0.05932
O          1.69676       -1.29912       -1.21462
O          1.97085       -1.66874        1.22407
H          1.13538       -1.09501        1.27927
C          3.42238       -3.08897       -0.34628
H          3.97804       -3.07920       -1.28440
H          4.09271       -3.26114        0.49564
H          2.62091       -3.82598       -0.37262
N         -4.37243       -1.16733       -0.26064
C         -4.42472       -0.28204       -1.45238
C         -4.99321       -0.57531        0.95095
H         -4.81353       -2.06051       -0.47530
H         -3.89491        0.63753       -1.20288
H         -3.91754       -0.77841       -2.27981
H         -5.46497       -0.07566       -1.70974
H         -4.43778        0.33122        1.19206
H         -6.04356       -0.35291        0.75489
H         -4.90277       -1.28732        1.77136
H         -0.25338        2.93967       -0.18936
H          0.41925        3.61801       -1.66247
H          1.65155        1.60347       -1.10396
H          2.72262        2.99190       -0.89085
H          1.33692        1.60959        1.28749
H          2.94372        1.64266        1.00821
H          1.08969        4.54551        1.02512
H          1.53683        5.25108       -0.36694
C          0.63263        3.43693       -0.60266
C          1.83278        2.49532       -0.48318
N          0.78615        4.72424        0.07096
N          2.09115        2.18601        0.92182
