35
1sa1msa1ma1eda_136.log	Energy: -1035885.9938622
S         -0.89555        0.59764        0.92349
O          0.58000        0.60869        1.19307
O         -1.72846        0.96879        2.05777
O         -1.16248        1.41845       -0.29992
O         -1.19292       -0.90709        0.54514
H          0.20052        1.76193       -1.03408
H         -2.21550       -1.09727        0.66289
S          3.23863       -0.78664       -0.14901
O          4.13480        0.25294        0.33461
O          2.52670       -0.48409       -1.40626
O          2.22407       -1.24049        0.94560
H          1.47707       -0.52654        1.09337
C          4.12997       -2.30331       -0.37617
H          4.88672       -2.11641       -1.13841
H          4.59467       -2.56733        0.57342
H          3.42755       -3.07011       -0.70031
N          1.16825        1.94573       -1.44616
H          1.64894        1.02467       -1.50343
C          1.94037        2.86454       -0.57336
H          2.94667        2.98935       -0.97229
H          1.42403        3.82274       -0.51885
H          1.98545        2.41240        0.41617
H          1.06453        2.31563       -2.38794
H         -5.48413       -0.04963        0.44597
H         -3.95254        0.82717        0.64801
H         -4.60689        0.81260       -1.72126
H         -3.11506       -0.09923       -1.47831
H         -5.76622       -1.25168       -1.96290
H         -4.36049       -1.55903       -2.73947
H         -3.95537       -1.30284        1.82214
H         -4.11364       -2.08417        0.37058
C         -4.40678       -0.07272        0.22531
C         -4.19123       -0.10533       -1.28205
N         -3.75722       -1.24690        0.82805
N         -4.76294       -1.33524       -1.83754
