39
1sa1msa1dma1tma_31.log	Energy: -1050484.3819427
S          0.91551        0.65339        0.81926
O         -0.11751        0.73322        1.84835
O          0.88219       -0.81698        0.17296
O          0.69487        1.59713       -0.30628
O          2.31514        0.71946        1.33106
H         -1.05069        1.74860       -0.44935
H          3.25224        0.07765        0.32009
S         -2.64354       -1.48710       -0.17324
O         -3.39173       -2.54333       -0.84434
O         -3.44354       -0.26602        0.15668
O         -1.39186       -1.07121       -0.90769
H         -0.03186       -0.96896       -0.26257
C         -2.07766       -2.12003        1.39979
H         -2.95965       -2.38754        1.98269
H         -1.46576       -3.00323        1.21186
H         -1.49932       -1.34121        1.90126
N         -2.07116        1.94435       -0.40268
C         -2.56633        2.28818       -1.74810
C         -2.29725        2.97281        0.63083
H         -2.55276        1.04736       -0.10970
H         -2.06329        3.18808       -2.10734
H         -2.35618        1.44824       -2.41054
H         -3.64387        2.45264       -1.70105
H         -1.81755        3.90568        0.32860
H         -3.37034        3.12520        0.75746
H         -1.85366        2.61254        1.55932
N          3.91923       -0.37365       -0.39850
C          3.37142       -0.06832       -1.74424
H          2.38844       -0.53030       -1.82809
H          3.25946        1.01186       -1.83963
H          4.05261       -0.45496       -2.50644
C          5.24656        0.24419       -0.18742
H          5.16103        1.31905       -0.34908
H          5.56250        0.05903        0.83963
H          5.96898       -0.18434       -0.88645
C          3.92263       -1.83014       -0.12316
H          4.30412       -1.99481        0.88499
H          2.89422       -2.18589       -0.18190
H          4.55664       -2.33856       -0.85382
