27
1sa1msa1a1ma_110.log	Energy: -951831.2546687
S         -2.40102       -0.26368        0.08437
O         -2.22624       -1.20876        1.17662
O         -2.41225        1.16609        0.38006
O         -1.44392       -0.57109       -1.05286
O         -3.86323       -0.62559       -0.51867
H         -4.14291        0.10541       -1.08600
S          1.27423        1.31065        0.03220
O          2.67334        1.57708       -0.25782
O          0.96732        0.28743        1.03370
O          0.60984        0.91359       -1.34682
H         -0.26555        0.40516       -1.22866
C          0.43242        2.80252        0.48959
H          0.86437        3.13843        1.43293
H          0.59572        3.53859       -0.29738
H         -0.62623        2.55653        0.60393
N          0.32528       -2.28468        0.18367
H         -0.36788       -1.84418       -0.45739
H          0.25861       -1.72020        1.03496
H          0.06059       -3.24599        0.37642
H          1.31599       -2.18395       -0.20966
N          2.92427       -1.75156       -0.68957
H          3.36977       -2.33428       -1.39220
C          3.74766       -1.69572        0.52911
H          4.75359       -1.30057        0.35274
H          3.24866       -1.04881        1.25346
H          3.83428       -2.69864        0.95636
H          2.86355       -0.81607       -1.08912
