36
1sa1msa2dma_115.log	Energy: -1025812.3428782
S          0.19366       -1.22879        0.39688
O          1.48078       -1.85148        0.76747
O         -0.44033       -0.49702        1.52202
O          0.30188       -0.38655       -0.81366
O         -0.74804       -2.46701        0.05536
H          3.13538        0.61211       -0.18018
H         -1.66496       -2.12325       -0.06843
S         -3.38211        0.27739       -0.16901
O         -4.74600        0.74824       -0.08637
O         -3.13461       -1.16821       -0.23526
O         -2.58617        0.88196        1.05648
H         -1.75761        0.33974        1.26091
C         -2.58191        1.02410       -1.57212
H         -3.08986        0.65454       -2.46387
H         -2.69280        2.10495       -1.48507
H         -1.53346        0.71648       -1.56309
N          2.62161        2.18331        0.31541
C          2.03726        2.00285        1.65206
C          1.62715        2.64677       -0.66064
H          3.36793        2.87012        0.37587
H          1.26840        1.22708        1.61153
H          2.81338        1.68359        2.35271
H          1.57501        2.92369        2.03285
H          0.86995        1.86705       -0.77889
H          1.13615        3.57820       -0.34626
H          2.11222        2.81214       -1.62674
N          3.40304       -0.39144       -0.43552
C          4.73351       -0.69220        0.12203
C          3.29206       -0.56812       -1.89804
H          2.68404       -1.00203        0.03079
H          5.47771       -0.02703       -0.32098
H          4.70267       -0.54361        1.20206
H          4.99377       -1.73036       -0.09077
H          3.96167        0.13180       -2.40250
H          3.56115       -1.59300       -2.15983
H          2.25349       -0.38267       -2.17332
