33
1sa1msa1ma1dma_150.log	Energy: -1001152.0967058
S         -0.46793       -1.09753       -0.78842
O          0.84100       -1.72652       -1.06446
O         -1.60899       -2.00523       -0.81948
O         -0.41864       -0.61046        0.76376
O         -0.66527        0.15308       -1.56755
H          0.44065       -0.14826        0.91604
H         -1.91316        0.98715       -0.87449
S          3.22841        0.25234        0.39863
O          4.02265       -0.58968        1.27036
O          1.92924        0.72766        0.90660
O          3.02020       -0.40335       -1.01530
H          2.14888       -0.93654       -1.06698
C          4.18298        1.67408       -0.07229
H          4.42073        2.21351        0.84497
H          5.09330        1.32279       -0.55770
H          3.58606        2.28663       -0.74667
N         -3.79947       -0.85706        0.79988
H         -4.77341       -1.10604        0.65847
C         -3.43536       -0.97477        2.21921
H         -3.64801       -1.96476        2.63813
H         -2.36357       -0.78996        2.31508
H         -3.97774       -0.22619        2.80415
H         -3.23233       -1.50750        0.24885
N         -2.71541        1.41216       -0.33926
C         -3.63647        2.07637       -1.27707
C         -2.17520        2.28723        0.71819
H         -3.21246        0.57284        0.11720
H         -3.12402        2.89949       -1.77852
H         -3.96280        1.34825       -2.02026
H         -4.50219        2.46007       -0.73315
H         -1.62480        3.11466        0.26679
H         -2.99558        2.67544        1.32555
H         -1.50025        1.69410        1.33512
