35
1sa1msa1ma1eda_171.log	Energy: -1035887.0514667
S          1.43655        0.27868       -0.67708
O          2.76323        0.16855       -1.37572
O          0.34528       -0.30629       -1.54209
O          1.50647       -0.47837        0.62355
O          1.09556        1.71650       -0.43199
H          3.11519       -1.21988        0.82096
H         -0.43918        1.95300       -0.95528
S         -2.12060       -1.83220        0.15798
O         -3.15573       -2.84301        0.21047
O         -2.53364       -0.44124       -0.10959
O         -1.05130       -2.26613       -0.89789
H         -0.41841       -1.47755       -1.15662
C         -1.21965       -1.82147        1.69164
H         -1.89899       -1.45624        2.46303
H         -0.91731       -2.84769        1.90184
H         -0.34579       -1.17452        1.57127
N          4.06091       -1.14879        0.38440
H          4.44766       -2.06859        0.19271
C          4.95750       -0.28884        1.18126
H          5.89497       -0.14032        0.64562
H          4.46102        0.67224        1.31501
H          5.14998       -0.74276        2.15379
H          3.73426       -0.64845       -0.52128
H         -2.03408        1.67047        1.41781
H         -2.72377        3.27911        1.65561
H         -3.34950        2.55942       -0.53662
H         -2.11029        3.83565       -0.72707
H         -1.73147        0.90005       -0.92464
H         -1.60094        1.99178       -2.16861
H         -0.53496        3.48359        2.37845
H          0.11113        2.76543        1.05093
C         -1.95215        2.72522        1.11174
C         -2.30271        2.82242       -0.36825
N         -0.66092        3.34228        1.38349
N         -1.47449        1.87758       -1.16555
