28
1sa1msa1eda_144.log	Energy: -975722.2427060
S          1.49809       -1.58635       -0.02543
O          0.74415       -2.73339       -0.52043
O          2.15558       -0.76198       -1.05093
O          0.75225       -0.73358        0.94677
O          2.68897       -2.19767        0.91290
H          2.93853       -3.05184        0.53623
S         -3.04616        0.25452       -0.16697
O         -2.07511        1.30070       -0.45199
O         -4.26198        0.16598       -0.95401
O         -3.48768        0.47076        1.38190
H         -4.45196        0.40130        1.43094
C         -2.21970       -1.30893       -0.08838
H         -1.81124       -1.51475       -1.07905
H         -1.40248       -1.23777        0.63272
H         -2.95174       -2.06561        0.19232
H          1.48300        3.63381        0.35291
H          1.34872        2.54494        1.76288
H          3.73591        2.81086        0.87694
H          3.16825        1.13915        0.92356
H          4.02848        2.50240       -1.34779
H          3.29580        1.01582       -1.29356
H         -0.29431        2.05430       -0.09038
H          1.04759        1.67193       -1.01741
C          1.60786        2.60680        0.70403
C          3.02961        2.10648        0.42794
N          0.67913        1.74262       -0.06005
N          3.22424        1.99023       -1.01397
H          0.67494        0.76211        0.34094
