29
1sa1msa1tma_28.log	Energy: -965656.5870272
S          0.71292        1.64999        0.03450
O          0.35314        1.01702       -1.27324
O          1.89691        2.48153       -0.00488
O         -0.49671        2.59266        0.44765
O          0.76438        0.55742        1.07054
H         -1.34021        2.09265        0.34333
H          1.65265       -0.57517        0.44096
S         -2.54532       -0.54248       -0.06586
O         -3.71001       -1.29140       -0.47919
O         -2.63838        0.91512        0.06521
O         -1.35823       -0.88455       -1.06017
H         -0.72467       -0.09269       -1.17313
C         -1.95497       -1.18622        1.48485
H         -2.72337       -0.97719        2.23021
H         -1.81678       -2.26211        1.37355
H         -1.02179       -0.67234        1.72483
N          2.35536       -1.27371        0.03480
C          1.75887       -1.88409       -1.18027
H          0.81345       -2.35730       -0.91404
H          1.56219       -1.09091       -1.90116
H          2.45590       -2.61928       -1.58940
C          3.56857       -0.47886       -0.29041
H          3.29666        0.29080       -1.01285
H          3.92454        0.00583        0.61855
H          4.33374       -1.14277       -0.69909
C          2.61336       -2.27663        1.09243
H          2.97372       -1.76404        1.98466
H          1.68101       -2.79368        1.32153
H          3.35988       -2.99360        0.74336
