36
1sa1msa2dma_229.log	Energy: -1025796.8551350
S         -1.27219        0.34484        0.17642
O         -0.10985        0.60005        1.05461
O         -2.29556        1.38508        0.17468
O         -0.72241        0.32035       -1.32409
O         -1.85418       -1.01315        0.43097
H          0.09789       -0.22895       -1.35536
H         -3.35855       -0.96156        0.20140
S          2.50180       -1.40101       -0.11217
O          3.78090       -0.78014       -0.38456
O          1.44242       -1.28273       -1.12403
O          1.93907       -0.93174        1.28397
H          1.12974       -0.32758        1.19522
C          2.75695       -3.12865        0.21242
H          3.18354       -3.56301       -0.69217
H          3.45441       -3.21612        1.04538
H          1.79570       -3.58246        0.45051
N          1.91154        2.89306        0.16638
C          3.16906        2.70911        0.87182
C          2.01038        2.56845       -1.24642
H          1.18933        2.32237        0.59332
H          3.89847        3.44620        0.51450
H          3.01767        2.88403        1.94105
H          3.61363        1.70803        0.73846
H          2.67462        3.28764       -1.74079
H          2.41224        1.55878       -1.44437
H          1.02378        2.64661       -1.71081
N         -4.41955       -0.83067        0.02418
C         -4.58683       -0.23709       -1.32694
C         -4.97196        0.00893        1.11643
H         -4.84384       -1.75673        0.04929
H         -4.06114        0.71800       -1.33264
H         -4.13413       -0.90454       -2.06025
H         -5.64851       -0.09938       -1.53883
H         -4.42952        0.95454        1.10616
H         -6.03976        0.16690        0.95508
H         -4.80197       -0.49694        2.06688
