39
1sa1msa1dma1tma_106.log	Energy: -1050470.1350493
S          0.39078       -1.61823        0.44150
O         -0.35180       -0.98441        1.55711
O          0.58702       -0.61992       -0.66811
O          1.63793       -2.26981        0.81882
O         -0.53829       -2.76347       -0.15320
H         -1.44262       -2.38983       -0.28505
S         -3.09852        0.04200       -0.33122
O         -4.44826        0.55436       -0.28156
O         -2.88992       -1.40664       -0.44147
O         -2.32403        0.57657        0.94144
H         -1.57753       -0.04997        1.21396
C         -2.22678        0.81498       -1.67624
H         -2.72319        0.50678       -2.59732
H         -2.29364        1.89515       -1.54629
H         -1.19340        0.46281       -1.65025
N          0.73473        2.21773        0.48441
C          0.15669        3.30353       -0.29298
C          0.45452        2.35160        1.91060
H          0.34852        1.33427        0.16039
H          0.65719        4.24603       -0.04403
H          0.30564        3.11635       -1.36169
H         -0.92232        3.44146       -0.11067
H          1.00163        3.21092        2.31477
H         -0.61609        2.49444        2.12327
H          0.78105        1.44891        2.43340
N          3.17425        0.11499       -0.57588
C          3.51911        0.35715        0.85010
H          2.92919        1.20918        1.18975
H          3.25886       -0.53651        1.41816
H          4.58845        0.56851        0.92486
C          3.88365       -1.06850       -1.12213
H          3.60338       -1.93511       -0.52247
H          3.56601       -1.22182       -2.15398
H          4.96071       -0.89150       -1.08158
C          3.37290        1.33308       -1.39617
H          3.03825        1.13075       -2.41451
H          2.77182        2.12843       -0.95129
H          4.43326        1.59623       -1.39803
H          2.14397       -0.11926       -0.60900
