30
1sa1msa2ma_149.log	Energy: -976474.2686656
S         -1.60455        0.03576       -0.51224
O         -2.69162        0.73250       -1.22134
O         -0.45569        0.89646       -0.17038
O         -2.11497       -0.71562        0.67238
O         -1.08931       -1.04595       -1.56270
H         -3.75106       -0.66329        0.65173
H         -0.24291       -1.43971       -1.23844
S          2.29198       -1.09319        0.08801
O          3.23587       -0.50297       -0.84380
O          1.22933       -1.94529       -0.46357
O          1.64481        0.00819        1.01331
H          0.80524        0.38889        0.58801
C          3.17596       -2.01934        1.31537
H          3.69147       -2.82543        0.79247
H          3.89172       -1.34861        1.79060
H          2.45962       -2.41297        2.03527
N          3.67917        2.68281       -0.19814
H          3.85705        3.14637       -1.08249
C          2.44149        3.18059        0.39681
H          1.53445        3.00765       -0.20178
H          2.29368        2.70034        1.36823
H          2.53416        4.25650        0.57576
H          3.60214        1.69074       -0.40351
N         -4.66296       -0.24105        0.30548
H         -4.30438        0.20480       -0.56420
C         -5.17484        0.77325        1.25439
H         -6.05711        1.25782        0.83731
H         -5.41920        0.29264        2.20102
H         -4.38685        1.50964        1.40911
H         -5.34344       -0.96447        0.08677
