27
1sa1msa1a1ma_166.log	Energy: -951818.7028541
S         -1.47697       -0.35503       -0.36521
O         -1.88329       -1.52062        0.40024
O         -0.29134       -0.42139       -1.20657
O         -2.66857        0.07967       -1.29859
O         -1.32499        0.83769        0.63556
H         -3.56453       -0.14314       -0.81256
H         -0.67550        1.58024        0.23830
S          3.13269       -0.11446        0.25144
O          2.93952        1.11800       -0.49416
O          2.60992       -0.23682        1.60034
O          4.73976       -0.36216        0.34161
H          4.97228       -0.43738        1.27823
C          2.64277       -1.48857       -0.75166
H          3.20215       -1.43875       -1.68588
H          2.85791       -2.40556       -0.20409
H          1.57051       -1.36795       -0.93219
N          0.28355        2.57104       -0.37509
H          0.38455        3.44799        0.12585
H         -0.00360        2.78094       -1.32661
H          1.20189        2.12504       -0.42640
N         -4.74742       -0.56495        0.12943
H         -5.64170       -0.74936       -0.31334
C         -4.88093        0.41221        1.22001
H         -5.57574        0.08990        2.00321
H         -3.89622        0.57541        1.66302
H         -5.22858        1.36172        0.80702
H         -4.38708       -1.44672        0.48793
