33
1sa1msa1ma1dma_88.log	Energy: -1001153.6146198
S          1.46321        0.26709       -0.76967
O          1.54843        1.28680        0.31950
O          1.09671       -1.06825       -0.17801
O          0.59436        0.66253       -1.86937
O          2.92002        0.09353       -1.33909
H          3.54916       -0.10594       -0.54831
S         -2.35562       -1.14384        0.04140
O         -2.93558       -0.45707       -1.10210
O         -1.99809       -0.27772        1.18575
O         -1.15142       -2.03979       -0.34457
H         -0.19165       -1.56682       -0.30272
C         -3.49470       -2.37408        0.62664
H         -4.41364       -1.85645        0.90263
H         -3.67867       -3.07791       -0.18496
H         -3.05240       -2.87420        1.48740
N          4.27324       -0.41808        0.86058
H          5.24965       -0.15249        0.93542
C          4.06852       -1.82790        1.22429
H          4.34680       -2.05163        2.26080
H          3.01489       -2.06919        1.07022
H          4.66170       -2.45631        0.55641
H          3.74191        0.19309        1.47639
N         -0.98557        2.21961        0.54679
C         -1.13407        3.14963        1.68200
C         -1.54515        2.71149       -0.73396
H          0.03139        1.97258        0.42674
H         -2.19350        3.34389        1.85686
H         -0.69134        2.69442        2.56804
H         -0.61938        4.08374        1.45231
H         -2.61612        2.87994       -0.61237
H         -1.04062        3.63984       -1.00549
H         -1.36194        1.95437       -1.49572
H         -1.43435        1.31125        0.78622
