33
1sa1msa1ma1dma_66.log	Energy: -1001154.6396126
S         -0.68998        1.77133        0.16328
O          0.45849        2.51126        0.67695
O         -0.29945        0.77738       -0.89254
O         -1.61241        1.18143        1.13218
O         -1.62855        2.85113       -0.62061
H         -1.04908        3.46826       -1.08707
S          2.77118       -0.50331       -0.15064
O          3.92407       -1.26793       -0.57649
O          1.67704       -1.19563        0.53869
O          2.17781        0.21325       -1.43438
H          1.23260        0.51339       -1.25962
C          3.28942        0.85636        0.86938
H          3.69280        0.43153        1.78937
H          4.06058        1.40314        0.32665
H          2.41987        1.48807        1.06627
N         -3.45114       -0.49322       -0.50682
H         -3.29415        0.25437        0.16958
C         -4.80764       -1.03616       -0.40462
H         -5.59263       -0.28342       -0.54663
H         -4.94511       -1.82231       -1.15168
H         -4.94237       -1.48599        0.58251
H         -3.29818       -0.06863       -1.41733
N         -1.07140       -1.76162        0.21393
C         -1.10279       -2.01093        1.66971
C         -0.70107       -2.93571       -0.59857
H         -2.01196       -1.37170       -0.09830
H         -0.11759       -2.34815        1.99256
H         -1.35400       -1.07158        2.16263
H         -1.85698       -2.77053        1.88518
H          0.30389       -3.25528       -0.32152
H         -1.42216       -3.73638       -0.42376
H         -0.71432       -2.65041       -1.65113
H         -0.39645       -1.00738        0.02460
