24
1sa1msa2a_85.log	Energy: -927164.6396768
S          1.67447       -1.05934        0.11954
O          1.23769       -2.41405       -0.18164
O          3.09714       -0.81471        0.33470
O          1.38389       -0.14584       -1.22648
O          0.80133       -0.40996        1.15853
H          0.43584       -0.19425       -1.43352
H          0.69249        1.17140        0.93754
S         -2.45205        0.11265       -0.21211
O         -1.38315        0.59380       -1.07944
O         -3.83027        0.16330       -0.65787
O         -2.33902        1.04620        1.11955
H         -3.23362        1.21769        1.44773
C         -2.03892       -1.49342        0.40788
H         -1.95903       -2.15788       -0.45405
H         -1.07502       -1.41217        0.91838
H         -2.84180       -1.81270        1.07241
N          0.68391        2.15609        0.53118
H          0.41467        2.84394        1.22741
H          0.00295        2.13975       -0.22926
H          1.67628        2.31842        0.16005
N          3.30522        2.11517       -0.36833
H          4.07019        2.69867       -0.04540
H          3.34199        2.09335       -1.38341
H          3.48502        1.15251       -0.06265
