33
1sa1msa1a1tma_04.log	Energy: -1001166.3463916
S         -1.73175       -1.37937       -0.37894
O         -1.71586       -0.17945       -1.24907
O         -2.89521       -2.23340       -0.47114
O         -0.48931       -2.29163       -0.85097
O         -1.38345       -0.96327        1.02861
H          0.30652       -1.72258       -1.01378
H         -0.09242       -1.68813        1.63129
S          2.33744        0.18968       -0.20997
O          1.87552       -1.08245       -0.83124
O          2.41553        0.05094        1.28071
O          1.58079        1.37909       -0.63380
H         -1.23385        1.14999       -0.29954
C          4.01473        0.41732       -0.77014
H          4.59767       -0.45585       -0.47725
H          3.99273        0.52128       -1.85511
H          4.40887        1.32033       -0.30357
N          0.87488       -2.08595        1.83352
H          1.07454       -2.74819        1.08367
H          0.91929       -2.54266        2.73899
H          1.56048       -1.28575        1.74884
N         -1.40705        2.06662        0.18383
C         -0.99144        3.12961       -0.76398
H          0.07525        3.01440       -0.95125
H         -1.54556        2.99859       -1.69389
H         -1.21208        4.10507       -0.32415
C         -2.86943        2.08406        0.43525
H         -3.38736        1.95719       -0.51484
H         -3.11410        1.24800        1.09072
H         -3.14089        3.03342        0.90241
C         -0.63711        2.11426        1.45216
H         -0.93556        1.25714        2.05460
H          0.42352        2.04620        1.21451
H         -0.86731        3.05174        1.96484
