29
1sa1msa1tma_07.log	Energy: -965661.0446850
S         -1.27975       -1.68853       -0.11421
O         -0.83915       -2.98225       -0.58912
O         -0.63519       -0.55299       -0.93020
O         -2.70017       -1.41720        0.04831
O         -0.68808       -1.44169        1.37326
H          0.29156       -1.41434        1.34630
S          2.31946        0.20298        0.07795
O          2.01605       -0.78309        1.11863
O          1.84603        1.56715        0.31235
O          1.82705       -0.31717       -1.31813
H          0.81165       -0.51592       -1.25239
C          4.07011        0.22297       -0.19932
H          4.53000        0.58460        0.72074
H          4.39086       -0.79413       -0.42182
H          4.27961        0.89716       -1.02925
N         -1.64613        1.75774       -0.05681
C         -0.96583        2.87670       -0.75286
H          0.10487        2.79931       -0.56094
H         -1.15898        2.79158       -1.82286
H         -1.35865        3.82408       -0.37631
C         -3.10362        1.71796       -0.33559
H         -3.25206        1.67142       -1.41478
H         -3.51344        0.81464        0.11659
H         -3.56962        2.61799        0.07210
C         -1.36227        1.76192        1.40275
H         -1.80478        0.86809        1.84247
H         -0.28068        1.73860        1.54001
H         -1.78859        2.66599        1.84385
H         -1.23687        0.85629       -0.43660
