32
1sa1msa1a1eda_33.log	Energy: -1011239.7443638
S         -2.42925       -1.15373       -0.01950
O         -2.65622       -0.11107        0.98396
O         -3.59659       -1.63338       -0.73495
O         -1.24368       -0.84233       -0.88234
O         -1.81340       -2.45410        0.79885
H         -2.52307       -2.83642        1.33158
S          2.99301        0.03781        0.02659
O          2.08846       -0.43467        1.11480
O          2.58903        1.37823       -0.47492
O          3.13640       -0.97872       -1.04835
C          4.61044        0.24850        0.74301
H          4.53589        0.98975        1.53865
H          4.93793       -0.71283        1.13900
H          5.28477        0.59168       -0.04178
N          0.91741       -2.42751       -0.36149
H          1.74175       -2.17735       -0.94031
H          1.14198       -2.00559        0.55476
H          0.06317       -1.93511       -0.70661
H          0.75098       -3.42648       -0.29562
H         -0.23615        3.62725       -0.61630
H         -0.62935        2.47943       -1.91789
H         -2.66809        3.67165       -0.93140
H         -2.76451        1.91293       -0.85342
H         -2.82124        3.66130        1.32919
H         -2.80633        2.00684        1.35252
H          0.91951        1.59588       -0.18181
H         -0.37286        1.75714        0.91158
C         -0.75957        2.69891       -0.85644
C         -2.23423        2.78554       -0.45795
N         -0.12063        1.61645       -0.07323
N         -2.34120        2.83625        0.99771
H         -0.49546        0.68893       -0.35454
