41
1sa1msa1tma1eda_38.log	Energy: -1085221.0495911
S         -0.26412       -1.70017        0.59209
O         -0.67897       -0.48371        1.55999
O          0.84407       -2.42561        1.21442
O         -1.54357       -2.44542        0.49764
O          0.10541       -1.08275       -0.70850
H         -2.56719       -1.30461       -0.06018
H          1.77694       -0.54700       -0.85412
S          0.34370        2.55966        0.06367
O         -1.09702        2.37819       -0.17757
O          1.19017        2.52948       -1.15550
O          0.87662        1.61244        1.10916
H         -0.07541        0.29950        1.43176
C          0.54811        4.18568        0.77119
H         -0.03037        4.23104        1.69406
H          1.60778        4.34439        0.97127
H          0.18019        4.91366        0.04764
H          4.03529       -1.39292        1.01261
H          5.21219       -1.85545       -0.21720
H          4.57742        0.48697       -0.53833
H          4.02673       -0.50308       -1.91551
H          2.31975        0.44507        0.33068
H          2.25375        1.01184       -1.16820
H          3.77703       -3.56679       -0.49723
H          2.45011       -2.74488        0.00092
C          4.16009       -1.59649       -0.06286
C          3.90077       -0.31432       -0.84780
N          3.30823       -2.67170       -0.54519
N          2.51525        0.15947       -0.63899
N         -3.29537       -0.64434       -0.45693
C         -2.72646       -0.02512       -1.68428
H         -1.88500        0.60588       -1.39710
H         -2.38628       -0.81975       -2.34812
H         -3.50388        0.57517       -2.16363
C         -4.46554       -1.49938       -0.75736
H         -4.16385       -2.26774       -1.46956
H         -4.80293       -1.97328        0.16492
H         -5.26450       -0.88614       -1.18027
C         -3.59756        0.37867        0.57727
H         -3.86532       -0.13108        1.50304
H         -2.70689        0.98844        0.72773
H         -4.42563        0.99965        0.22642
