33
1sa1msa1ma1dma_135.log	Energy: -1001152.3313190
S          0.48018        1.02020       -0.67310
O          0.52351       -0.32900       -1.29050
O         -0.05022        0.93146        0.73038
O          1.74025        1.74991       -0.74701
O         -0.57795        1.87649       -1.49409
H         -1.46245        1.45445       -1.38436
S         -3.18414       -0.49403        0.10273
O         -3.40813       -1.82133       -0.43089
O         -2.90082        0.60445       -0.82924
O         -2.06114       -0.53967        1.20725
H         -1.25935        0.05972        0.98181
C         -4.60099       -0.02450        1.07011
H         -5.45364        0.01182        0.39129
H         -4.75373       -0.78274        1.83804
H         -4.41275        0.95320        1.51253
N          2.53038        0.02659        2.04080
H          1.56187        0.32280        1.89520
C          3.39283        1.21802        2.09250
H          3.15121        1.88666        2.92642
H          4.43927        0.91246        2.18362
H          3.26246        1.77192        1.16056
H          2.56201       -0.47637        2.92226
N          2.89176       -1.28439       -0.37918
C          3.97690       -0.61027       -1.12156
C          3.03923       -2.74470       -0.25562
H          2.81005       -0.84334        0.59697
H          4.05685       -1.04093       -2.12139
H          3.72245        0.44798       -1.19578
H          4.91944       -0.74302       -0.58638
H          3.06918       -3.19807       -1.24787
H          3.96262       -2.97441        0.27996
H          2.18505       -3.13941        0.29549
H          1.97609       -1.04664       -0.83342
