35
1sa1msa1ma1eda_113.log	Energy: -1035887.5293842
S          2.11311       -1.49316       -0.26468
O          2.17623       -2.93473       -0.42875
O          0.77879       -0.90481       -0.61583
O          2.60155       -0.92313        0.99953
O          3.12903       -0.84940       -1.36618
H          3.12654       -1.43176       -2.13739
S         -2.45995       -0.75409       -0.04099
O         -2.79887        0.24774       -1.04275
O         -1.90256       -0.25791        1.22523
O         -1.53176       -1.86778       -0.63306
H         -0.54411       -1.56568       -0.65236
C         -3.89802       -1.72693        0.32453
H         -4.25354       -2.17230       -0.60430
H         -3.62180       -2.49130        1.04971
H         -4.64294       -1.04543        0.73618
N          0.64271        0.83966        1.86742
H          1.42085        0.20344        1.59819
H          0.77466        1.76283        1.35747
C          0.58121        1.03772        3.32682
H         -0.25452        1.69537        3.56794
H          0.44081        0.07573        3.81958
H          1.51339        1.48759        3.66966
H         -0.23053        0.41309        1.52131
H          1.42480        3.85880       -1.51846
H          2.11725        2.31419       -0.98508
H          0.25415        1.98608       -2.59899
H         -0.05077        1.22568       -1.05032
H         -1.36681        3.61031       -2.07257
H         -1.98832        2.30003       -1.30189
H          1.58695        3.93281        0.83943
H         -0.00269        3.69570        0.47357
C          1.22456        2.94618       -0.93781
C          0.03933        2.19666       -1.54241
N          0.92191        3.26202        0.46835
N         -1.20115        2.94107       -1.32910
