40
1sa1msa2eda_88.log	Energy: -1095296.5511006
S         -0.33244       -1.83252       -0.52809
O          0.85551       -2.29796       -1.24086
O         -0.94682       -0.56897       -1.31088
O         -1.48337       -2.76865       -0.55087
O         -0.02846       -1.34913        0.84663
H         -2.83254       -1.92136       -0.54611
H          1.43334       -0.46574        0.86198
S          0.51828        2.63584       -0.16480
O          1.49441        2.60907        0.95727
O         -0.88096        2.83166        0.25128
O          0.70539        1.44673       -1.05983
H         -0.34156        0.22730       -1.23852
C          0.95557        4.04906       -1.16340
H          1.98022        3.92107       -1.51237
H          0.26383        4.09492       -2.00480
H          0.86667        4.94031       -0.54181
H          4.34003       -0.16829        1.42453
H          3.11768       -0.83155        2.54020
H          4.41608       -2.62097        1.27609
H          2.66890       -2.70288        1.02046
H          4.57772       -2.39630       -0.96764
H          2.94054       -2.22688       -1.13414
H          2.22370        1.00324        1.04705
H          2.58293        0.00669       -0.23002
C          3.41116       -0.73961        1.49206
C          3.56607       -2.10582        0.81821
N          2.36167        0.00910        0.77233
N          3.75949       -1.91926       -0.61615
H         -4.96528       -0.85382        1.21321
H         -3.59278       -1.91978        1.62079
H         -3.29179        0.51295        2.40063
H         -2.00208       -0.07318        1.34542
H         -4.07568        1.82838        0.62577
H         -2.48767        1.78121        0.20302
H         -4.49714       -1.77676       -0.84235
H         -3.54276       -0.38209       -0.82124
C         -3.90193       -1.04541        1.04594
C         -3.06189        0.19568        1.37662
N         -3.70139       -1.32332       -0.40274
N         -3.31910        1.20848        0.35909
