38
1sa1msa1dma1eda_239.log	Energy: -1060545.8940259
S          0.54901       -1.78429       -0.50471
O          0.40231       -0.53698       -1.26981
O         -0.62794       -2.67284       -0.65318
O          1.85971       -2.43140       -0.65047
O          0.58148       -1.34514        1.06520
H          2.89401       -1.07734       -0.06576
H         -0.30441       -0.98595        1.29829
S         -2.82805       -0.10154        0.20009
O         -2.64806        1.17244       -0.47754
O         -1.94522       -0.38125        1.34215
O         -2.79407       -1.30101       -0.80878
H         -1.92496       -1.84841       -0.77612
C         -4.50883       -0.21357        0.76175
H         -4.66448        0.59867        1.47229
H         -5.16309       -0.10164       -0.10268
H         -4.64872       -1.18286        1.23883
N          3.34094       -0.23716        0.35559
C          4.43032        0.22919       -0.52068
C          3.75043       -0.56507        1.73438
H          2.57891        0.53808        0.39752
H          5.20486       -0.53648       -0.59365
H          4.01630        0.42485       -1.51030
H          4.85520        1.14754       -0.11071
H          4.51847       -1.34040        1.71859
H          4.13921        0.33352        2.21739
H          2.87076       -0.92795        2.26584
H          2.02330        3.64431        0.32149
H          2.19089        2.80078       -1.22791
H          0.38215        4.53324       -1.25213
H         -0.19812        2.91253       -1.64595
H         -1.27102        4.48973        0.25533
H         -1.41474        2.86484        0.24271
H          0.83882        1.82722        1.18011
H          0.77894        1.04922       -0.25102
C          1.53024        2.94755       -0.36473
C          0.19735        3.53761       -0.83299
N          1.36530        1.66251        0.32454
N         -0.74344        3.62680        0.28482
