29
1sa1msa1tma_20.log	Energy: -965657.6501035
S         -0.90582        1.75411        0.07537
O         -2.00481        0.93594        0.65596
O          0.12842        2.17303        0.99998
O         -0.42077        1.11892       -1.18135
O         -1.60545        3.14410       -0.38189
H         -2.28106        2.94771       -1.04406
S          2.43063       -0.58162       -0.03301
O          3.53235       -1.45132       -0.38829
O          1.21694       -1.17266        0.53921
O          2.02905        0.21981       -1.34054
H          1.10411        0.60679       -1.26745
C          3.00059        0.68743        1.07101
H          3.85399        1.17722        0.60210
H          2.17607        1.38292        1.24100
H          3.29920        0.19376        1.99658
N         -2.02956       -1.65544        0.06356
C         -1.29974       -2.03296       -1.17494
H         -1.58089       -1.33936       -1.96696
H         -0.23225       -1.94715       -0.97820
H         -1.56618       -3.05843       -1.44208
C         -1.56871       -2.43346        1.24202
H         -0.49694       -2.27679        1.35814
H         -2.09633       -2.06978        2.12430
H         -1.78892       -3.49089        1.07799
C         -3.49817       -1.74291       -0.11310
H         -3.98326       -1.36155        0.78556
H         -3.78648       -1.12824       -0.96594
H         -3.77996       -2.78380       -0.28603
H         -1.84092       -0.63524        0.26771
