32
1sa1msa1a1eda_91.log	Energy: -1011239.8284124
S          2.00887       -1.19589       -0.17516
O          1.96779       -0.61469       -1.52078
O          0.96927       -0.56583        0.71105
O          1.93321       -2.66010       -0.09938
O          3.41827       -0.79526        0.48037
H          3.39757        0.18710        0.58017
S         -2.74016        0.17898        0.13925
O         -2.34462        1.59064        0.37528
O         -2.67438       -0.69283        1.32961
O         -1.98192       -0.41475       -1.01617
C         -4.45069        0.23569       -0.36586
H         -5.02347        0.68164        0.44756
H         -4.52374        0.84410       -1.26733
H         -4.78791       -0.78283       -0.55886
N         -0.88942       -2.61136        0.23888
H          0.12521       -2.81800        0.13901
H         -1.07410       -2.13697        1.12994
H         -1.20085       -1.90003       -0.46459
H         -1.45684       -3.45102        0.16877
H          2.06095        1.88167       -1.49311
H          0.96460        3.28991       -1.54678
H          2.61735        3.69519        0.13519
H          1.07006        3.44987        0.94715
H          3.07261        2.29329        1.89861
H          1.82908        1.27695        1.59981
H         -0.14684        1.08201       -1.62699
H          0.41809        0.70726       -0.14596
C          1.30096        2.44201       -0.94510
C          1.86430        2.94114        0.38035
N          0.15151        1.52463       -0.75600
N          2.51985        1.87995        1.15460
H         -0.70308        1.92739       -0.32668
