30
1sa1msa2ma_78.log	Energy: -976493.1811484
S          0.57774        0.59716        1.00047
O          1.98423        0.82404        1.33541
O         -0.43713        1.27214        1.79354
O          0.34900        0.81674       -0.48668
O          0.40118       -0.99233        1.19229
H          1.79266        0.67292       -1.31290
H         -0.50971       -1.23188        0.89618
S         -2.95893       -0.34218       -0.47116
O         -2.06742       -1.35214        0.11628
O         -4.08015       -0.78914       -1.26623
O         -2.09559        0.63431       -1.37209
H         -1.15732        0.73043       -1.01729
C         -3.52999        0.71095        0.84164
H         -4.14487        0.09426        1.49835
H         -2.65606        1.09949        1.36920
H         -4.12176        1.51021        0.39577
N          2.79635        0.59770       -1.61878
H          3.21773       -0.20904       -1.03132
C          3.50244        1.86371       -1.31542
H          4.56057        1.76052       -1.55851
H          3.06372        2.67995       -1.88936
H          3.37507        2.05499       -0.24988
H          2.83152        0.36519       -2.60833
N          3.65235       -1.34327        0.11596
H          4.63492       -1.46407        0.34109
C          3.01302       -2.64521       -0.12595
H          3.11056       -3.33612        0.71828
H          1.94829       -2.48371       -0.30408
H          3.45354       -3.11046       -1.01183
H          3.21347       -0.87919        0.91363
