39
1sa1msa1dma1tma_128.log	Energy: -1050461.6645688
S         -1.59179       -0.50793       -0.62917
O         -0.42125       -0.50675       -1.52120
O         -2.84652       -0.95963       -1.26166
O         -1.33318       -1.61381        0.50087
O         -1.77547        0.78736        0.08095
H         -0.40318       -1.53826        0.83384
H         -3.45653        0.95672        0.39414
S          2.36986       -1.69417        0.28212
O          2.73576       -3.09530        0.24683
O          1.25020       -1.29210        1.15117
O          2.07169       -1.17163       -1.18497
H          1.10127       -0.94196       -1.30611
C          3.78047       -0.71273        0.70619
H          4.05991       -0.98987        1.72364
H          4.57828       -0.96871        0.00818
H          3.50023        0.34732        0.63022
N         -4.42055        0.55006        0.29754
C         -5.40824        1.56029       -0.12320
C         -4.75313       -0.19384        1.53199
H         -4.20965       -0.13204       -0.46337
H         -5.51465        2.31119        0.66110
H         -5.05451        2.03285       -1.03940
H         -6.36944        1.07675       -0.30357
H         -4.82821        0.50700        2.36445
H         -5.70096       -0.71630        1.39575
H         -3.95450       -0.91257        1.72018
N          2.69039        2.31271        0.12561
C          3.21372        3.42626        0.89470
H          3.01848        3.26495        1.95933
H          4.29608        3.50539        0.75216
H          2.75639        4.39184        0.60386
C          2.99421        2.45187       -1.28883
H          4.07654        2.53471       -1.43049
H          2.64286        1.56737       -1.82719
H          2.51861        3.34500       -1.73659
C          1.25994        2.14746        0.33952
H          0.88424        1.31131       -0.25131
H          1.06143        1.93169        1.39285
H          0.68752        3.04879        0.05093
