33
1sa1msa1a1tma_34.log	Energy: -1001156.0223234
S         -1.78707       -0.08358       -0.25316
O         -1.27026       -1.44348        0.10376
O         -2.09153        0.72066        0.93788
O         -0.90398        0.60846       -1.21755
O         -3.13549       -0.33520       -1.04945
H         -3.68010       -1.00132       -0.51611
S          2.21874       -1.24496        0.07195
O          2.14766       -1.09969        1.52147
O          2.29798       -0.00250       -0.69854
O          1.07323       -2.16738       -0.46649
H          0.12280       -1.82753       -0.24020
C          3.60995       -2.26381       -0.35898
H          4.50505       -1.72939       -0.03961
H          3.51811       -3.21361        0.16686
H          3.60950       -2.40930       -1.43883
N         -4.20956       -2.18838        0.57030
H         -4.83492       -2.92163        0.25567
H         -4.58149       -1.79126        1.42670
H         -3.30236       -2.59827        0.78397
N          0.49282        2.51374        0.05423
C          1.68143        3.02564       -0.66684
H          2.44846        2.25328       -0.65197
H          1.40019        3.24040       -1.69841
H          2.03009        3.93700       -0.17506
C         -0.63530        3.47924        0.03048
H         -0.87719        3.70622       -1.00804
H         -1.49350        3.00597        0.50910
H         -0.33874        4.38750        0.56027
C          0.81790        2.09851        1.44518
H         -0.08277        1.67045        1.88641
H          1.60197        1.34306        1.41447
H          1.14761        2.97827        2.00341
H          0.13295        1.66494       -0.45860
