35
1sa1msa1ma1eda_06.log	Energy: -1035902.8913870
S         -2.38693       -1.13446       -0.01344
O         -1.91198       -2.27543        0.79590
O         -3.11993       -0.11770        0.74138
O         -1.32758       -0.60067       -0.90191
O         -3.43845       -1.75346       -1.09233
H         -4.20635       -2.08101       -0.60465
S          2.89241        0.39972       -0.09923
O          2.50106        1.64530       -0.81250
O          3.14049       -0.75977       -0.97348
O          1.89921        0.07482        0.98088
C          4.42339        0.77630        0.73415
H          5.15879        1.05009       -0.02260
H          4.24810        1.60557        1.41942
H          4.74433       -0.11249        1.27771
N          0.78564       -2.26281        0.12563
H          0.64368       -2.00926       -0.85334
H          1.17068       -1.39166        0.56881
C          1.72743       -3.39063        0.27353
H          1.86943       -3.58954        1.33554
H          1.31811       -4.27561       -0.21371
H          2.67381       -3.10213       -0.18321
H         -0.16180       -2.44422        0.51112
H         -0.48319        3.91255       -0.48552
H         -1.04067        2.92680       -1.85796
H         -2.93811        3.81080       -0.37363
H         -2.92127        2.05493       -0.56766
H         -2.59623        3.46759        1.85766
H         -2.70804        1.83641        1.59332
H          0.82835        1.89039       -0.54241
H         -0.23841        1.86930        0.75901
C         -0.99297        2.98842       -0.76891
C         -2.38185        2.89975       -0.12891
N         -0.17977        1.86033       -0.26615
N         -2.24449        2.69425        1.31033
H         -0.57704        0.94718       -0.56649
