32
1sa1msa1a1eda_44.log	Energy: -1011238.5536144
S         -2.50057       -1.09406        0.06963
O         -2.42273       -2.43197        0.65397
O         -2.83856        0.02635        0.94030
O         -1.26214       -0.80000       -0.74050
O         -3.71560       -1.11530       -1.00776
H         -3.70490       -1.96798       -1.46250
S          2.99567       -0.10817       -0.10218
O          2.67555        1.07049       -0.91910
O          3.02040       -1.40063       -0.84357
O          2.09136       -0.20944        1.09840
C          4.64405        0.11375        0.54003
H          5.32903        0.16231       -0.30685
H          4.66671        1.04560        1.10524
H          4.88449       -0.73463        1.18068
N          0.73074       -2.47410        0.09134
H          0.92936       -2.04414        0.99967
H          0.46647       -3.44969        0.19111
H         -0.05524       -1.92856       -0.33670
H          1.61010       -2.31615       -0.45707
H          0.39446        3.41898        0.25631
H          0.51194        2.41188       -1.20643
H         -1.55360        3.95451       -1.13520
H         -1.94312        2.24749       -1.34288
H         -2.87836        3.85331        0.68766
H         -2.90928        2.20408        0.70306
H          0.83330        1.07676        0.83236
H         -0.71606        1.57814        1.32305
C         -0.08627        2.62565       -0.31985
C         -1.53928        2.98236       -0.63480
N         -0.10011        1.40556        0.52123
N         -2.31185        3.02060        0.60630
H         -0.51567        0.61267       -0.00919
