36
1sa1msa2dma_126.log	Energy: -1025812.0592502
S         -0.48348       -1.68037        0.00776
O         -0.53828       -0.83882       -1.19486
O         -0.03225       -0.89409        1.20426
O         -1.73028       -2.39682        0.30257
O          0.62465       -2.80686       -0.23843
H          1.43640       -2.34604       -0.54433
S          2.76051        0.31676       -0.12097
O          2.08314        1.41838       -0.79084
O          2.74713       -0.99721       -0.77114
O          2.24035        0.17130        1.35845
H          1.31334       -0.28547        1.34035
C          4.44729        0.76863        0.19777
H          4.92337        0.90815       -0.77326
H          4.45294        1.69762        0.76724
H          4.92267       -0.04046        0.75098
N         -3.15026        0.08961        0.13177
C         -3.71940       -0.01020       -1.22764
C         -4.09813        0.53404        1.16680
H         -2.76168       -0.83970        0.37579
H         -4.08724        0.97120       -1.53480
H         -2.92198       -0.34130       -1.89422
H         -4.53698       -0.73346       -1.23723
H         -4.45003        1.53908        0.92481
H         -4.94813       -0.14946        1.21749
H         -3.58457        0.55002        2.12868
H         -2.30467        0.80047        0.08194
N         -1.08698        1.83614       -0.09706
C         -0.60927        2.38583        1.17179
C         -1.27426        2.86185       -1.12215
H         -0.39230        1.17411       -0.44705
H         -1.35247        3.08529        1.57034
H         -0.47038        1.56885        1.88293
H          0.34560        2.91426        1.05452
H         -2.07328        3.54773       -0.81999
H         -0.35912        3.44440       -1.29160
H         -1.55637        2.38414       -2.06381
