28
1sa1msa1eda_121.log	Energy: -975727.4335773
S          0.58750       -1.33265        0.04690
O         -0.72121       -1.95351        0.32292
O          1.66989       -2.24772       -0.30215
O          0.40255       -0.42906       -1.27525
O          0.99446       -0.37579        1.12452
H         -0.40949        0.12156       -1.16847
H          2.55259       -0.31960        1.02522
S         -3.11190        0.52254       -0.13765
O         -4.14710        0.17488       -1.08882
O         -1.82279        0.99857       -0.66342
O         -2.85327       -0.65064        0.88070
H         -2.00656       -1.17246        0.66673
C         -3.73730        1.75525        0.97828
H         -3.98621        2.63227        0.38001
H         -4.62929        1.35269        1.45800
H         -2.96445        1.98457        1.71081
H          4.76751        0.08118       -0.94713
H          3.08159       -0.39976       -1.28411
H          3.41723        2.08055       -1.61683
H          2.24845        1.71394       -0.34710
H          4.96558        2.71404        0.04423
H          3.58346        3.14604        0.80158
H          3.90634       -1.29548        0.82381
H          4.11427        0.29479        1.37301
C          3.72515        0.19686       -0.63685
C          3.30898        1.66166       -0.60952
N          3.59316       -0.32937        0.74957
N          4.09085        2.35952        0.41511
