40
1sa1msa2eda_249.log	Energy: -1095278.7390310
S          0.55621       -2.40551       -0.51219
O          0.29048       -0.97788       -0.92821
O          1.57152       -3.06702       -1.29882
O          1.06785       -2.26629        1.01592
O         -0.73492       -3.11090       -0.35986
H          1.64967       -1.48026        1.09344
H         -1.98759       -2.03409       -0.29935
S          2.58001        1.27859        0.20823
O          4.00329        1.51600        0.12594
O          2.07440        0.32826        1.21186
O          2.03904        0.83908       -1.20913
H          1.40204        0.04553       -1.13516
C          1.75162        2.83186        0.46119
H          2.06641        3.20732        1.43592
H          2.07741        3.51075       -0.32731
H          0.66755        2.69273        0.42555
H         -3.65289       -0.07350        1.21284
H         -3.74238       -1.82445        1.52968
H         -2.22251       -0.75041        3.09454
H         -1.34207       -1.89600        2.07275
H         -0.31093        0.35204        2.41180
H         -0.42688       -0.10990        0.88360
H         -3.54038       -1.60145       -0.76043
H         -2.35959       -0.40476       -0.72807
C         -3.09479       -1.01388        1.18677
C         -1.86241       -0.92863        2.07674
N         -2.72992       -1.28443       -0.23238
N         -0.99411        0.17843        1.68063
H         -1.80650        2.98177       -2.21628
H         -3.30153        2.04661       -2.42836
H         -3.43290        3.69958       -0.57480
H         -3.72552        2.04359       -0.03759
H         -2.03628        3.61711        1.20045
H         -1.65858        2.02337        1.03298
H         -1.39701        0.58764       -2.46840
H         -0.88948        1.12312       -1.03909
C         -2.45037        2.21812       -1.76065
C         -2.94860        2.73132       -0.41430
N         -1.73392        0.94928       -1.57989
N         -1.83855        2.89263        0.52087
