35
1sa1msa1ma1eda_200.log	Energy: -1035885.6803836
S          0.85674       -1.39910       -0.70949
O         -0.60683       -1.60304       -0.89583
O          1.69403       -2.57416       -0.87230
O          1.30130       -0.23811       -1.55057
O          0.96496       -0.89559        0.79971
H          0.06929        0.73158       -1.85262
H          1.95881       -0.80653        1.01761
S         -3.02399        0.14902        0.57571
O         -3.12653        0.53514       -0.84342
O         -2.26623        1.05536        1.42635
O         -2.51469       -1.32338        0.69257
H         -1.67964       -1.48407        0.10068
C         -4.66124       -0.04961        1.22823
H         -5.12434        0.93724        1.23444
H         -5.21056       -0.73609        0.58513
H         -4.57344       -0.44187        2.24117
N         -0.70437        1.45885       -1.92638
H         -0.74117        1.79580       -2.88547
C         -0.43882        2.55599       -0.96046
H         -1.17966        3.34449       -1.09185
H         -0.53545        2.14083        0.04309
H          0.57307        2.93372       -1.11195
H         -1.60686        1.00272       -1.69315
H          4.52773        1.22611       -0.52081
H          4.61763        2.45081        0.73357
H          5.36151        0.34616        1.64098
H          3.85980        0.83250        2.44107
H          3.92709       -1.13166        0.24731
H          3.83099       -1.50077        1.82933
H          2.22413        1.16885       -0.37872
H          2.16898        2.07582        0.98764
C          4.06693        1.55653        0.41813
C          4.28077        0.48297        1.49089
N          2.68804        1.91922        0.12874
N          3.60978       -0.77940        1.14911
