41
1sa1msa1tma1eda_160.log	Energy: -1085206.1289596
S         -0.87475       -1.90559        0.44787
O         -0.82487       -0.64361        1.26154
O         -0.30753       -3.06145        1.12928
O         -2.24763       -2.06628       -0.08748
O          0.01379       -1.61376       -0.84761
H         -2.84718       -0.56459       -0.19078
H          0.98982       -1.76945       -0.60330
S          0.79319        2.13798        0.36118
O         -0.23244        2.91245        1.05560
O          0.49583        1.75948       -1.02071
O          1.17676        0.86370        1.20799
H          0.37389        0.21645        1.26674
C          2.35022        2.98202        0.40961
H          2.60357        3.17555        1.45166
H          3.07398        2.32612       -0.08332
H          2.21837        3.91617       -0.13753
H          4.19439       -1.58298       -1.79623
H          5.14799       -0.42301       -0.86776
H          4.44529       -1.98734        0.73006
H          3.33554       -0.61923        0.95704
H          2.71279       -3.08761       -0.50533
H          2.06329       -2.61116        0.90538
H          3.52653        0.65044       -2.36627
H          2.30837        0.10399       -1.43138
C          4.12863       -0.79077       -1.02974
C          3.62967       -1.41553        0.26747
N          3.29747        0.34040       -1.42836
N          2.45060       -2.26293        0.02927
N         -3.31408        0.34278       -0.47425
C         -2.57497        0.82215       -1.67118
H         -1.53712        1.02121       -1.39755
H         -2.60835        0.04091       -2.43099
H         -3.04863        1.73528       -2.03957
C         -4.71257       -0.02060       -0.79663
H         -4.70496       -0.79607       -1.56289
H         -5.19298       -0.40679        0.10272
H         -5.24341        0.86326       -1.15740
C         -3.23514        1.30928        0.65024
H         -3.67024        0.84806        1.53689
H         -2.19202        1.55566        0.84290
H         -3.78811        2.21161        0.37788
