36
1sa1msa2dma_96.log	Energy: -1025813.9714723
S          1.79514       -1.52865        0.03133
O          1.80374       -1.30288       -1.41741
O          2.82983       -0.81241        0.77671
O          0.44573       -1.35989        0.65003
O          2.04094       -3.12255        0.24995
H          2.82391       -3.37387       -0.25826
S         -2.56645       -0.38560       -0.14905
O         -2.31353        0.66598       -1.12894
O         -2.34601       -0.02192        1.25477
O         -1.76720       -1.68852       -0.49205
H         -0.82034       -1.64105       -0.08028
C         -4.22325       -0.98780       -0.35071
H         -4.89383       -0.14740       -0.16953
H         -4.33064       -1.35437       -1.37141
H         -4.38947       -1.78366        0.37439
N          0.14411        1.51634        1.29335
C         -0.77602        2.66835        1.34718
C          1.20087        1.52846        2.32666
H         -0.40177        0.64918        1.37193
H         -0.19929        3.58654        1.21648
H         -1.50487        2.56567        0.54308
H         -1.29228        2.68687        2.30830
H          1.78477        2.44484        2.21915
H          0.74320        1.49730        3.31737
H          1.84447        0.66136        2.17168
H          0.60353        1.50138        0.30104
N          1.27904        1.63895       -1.18091
C          2.65015        2.12978       -1.03904
C          0.45374        2.46922       -2.05749
H          1.31767        0.68615       -1.54805
H          2.63905        3.10427       -0.53668
H          3.21988        1.42180       -0.43235
H          3.15166        2.25361       -2.00911
H          0.33858        3.46520       -1.61460
H          0.89829        2.59170       -3.05550
H         -0.53439        2.01486       -2.15533
