32
1sa1msa1a1eda_298.log	Energy: -1011224.2490152
S          0.65274       -1.61015       -0.08421
O          1.58500       -2.59143        0.49051
O          0.13216       -0.64166        0.92914
O          1.23567       -0.88404       -1.23557
O         -0.58871       -2.45677       -0.58847
H          3.40251       -0.88768       -1.04521
H         -1.31570       -1.83580       -0.84543
S         -2.96568        0.35128        0.04480
O         -4.40000        0.42465        0.20256
O         -2.40627       -0.49978       -1.01545
O         -2.35467       -0.10227        1.43401
H         -1.39576       -0.37550        1.31153
C         -2.30224        1.98520       -0.17799
H         -2.69213        2.36072       -1.12528
H         -2.65519        2.60113        0.64941
H         -1.20923        1.93732       -0.20255
N          3.74939       -0.99616       -0.08850
H          3.21928       -1.81304        0.28014
H          3.40351       -0.11670        0.47380
H          4.75461       -1.13446       -0.05694
H          3.15710        1.86749       -1.29315
H          2.57498        3.51972       -1.09454
H          3.70783        2.79535        0.91852
H          1.99038        3.11531        1.23828
H          2.78623        1.06356        2.25346
H          1.61169        0.73357        1.18181
H          0.75206        2.50237       -1.96400
H          0.95374        1.09528       -1.16644
C          2.41064        2.48808       -0.76700
C          2.68896        2.43845        0.73082
N          1.03578        2.10852       -1.07404
N          2.57930        1.06669        1.25800
