36
1sa1msa2dma_203.log	Energy: -1025798.8493036
S          1.97635       -0.48807       -0.50686
O          1.24856       -1.77038       -0.54975
O          3.17502       -0.41268       -1.33817
O          0.99985        0.62680       -1.10981
O          2.25791       -0.06614        0.90652
H          0.09591        0.50943       -0.72662
H          3.56576        0.67218        0.96006
S         -2.04252       -1.17128        0.21576
O         -2.79118       -1.68538       -0.91514
O         -1.40101        0.14859        0.05120
O         -0.95545       -2.20396        0.70674
H         -0.07260       -2.06471        0.22743
C         -3.08443       -1.10445        1.64557
H         -3.84310       -0.34814        1.41447
H         -3.52160       -2.09227        1.79042
H         -2.47629       -0.80805        2.49968
N          4.52551        1.18424        0.90698
C          4.42066        2.23777       -0.13353
C          5.57268        0.17136        0.62734
H          4.68877        1.61163        1.81727
H          4.16891        1.74475       -1.07302
H          3.61855        2.92238        0.14226
H          5.36875        2.77257       -0.21438
H          5.30722       -0.32045       -0.30900
H          6.54713        0.65759        0.55267
H          5.57406       -0.56179        1.43395
N         -4.27032        1.54613        0.08203
C         -4.77210        2.80857        0.59735
C         -4.91994        1.14341       -1.15764
H         -3.26731        1.60629       -0.06912
H         -5.82583        2.69461        0.87524
H         -4.21646        3.09064        1.49628
H         -4.70661        3.63788       -0.12911
H         -5.97791        0.93535       -0.96215
H         -4.86944        1.91451       -1.94596
H         -4.45650        0.22799       -1.53310
