38
1sa1msa1dma1eda_217.log	Energy: -1060548.1056516
S          0.35707        2.08269        0.04549
O         -0.88794        1.87712        0.78489
O          1.56005        2.39272        0.81091
O          0.58330        0.97630       -0.94557
O          0.03228        3.39351       -0.86416
H          0.87135        3.75778       -1.17645
S          3.08212       -1.14516       -0.01540
O          4.07023       -2.14002       -0.37470
O          1.76691       -1.58481        0.45718
O          2.87390       -0.21027       -1.28048
H          2.02272        0.31522       -1.18173
C          3.75997       -0.03239        1.19428
H          3.90945       -0.60331        2.11146
H          4.71100        0.33599        0.80952
H          3.05254        0.78694        1.34324
N         -1.07617       -1.17088       -0.08567
C         -0.96363       -2.42272       -0.86020
C         -1.17266       -1.38440        1.37659
H         -0.26367       -0.56620       -0.29297
H         -1.81384       -3.06100       -0.61491
H         -0.96546       -2.18090       -1.92411
H         -0.02443       -2.90987       -0.59796
H         -2.10377       -1.91718        1.57659
H         -0.30384       -1.95409        1.70475
H         -1.17685       -0.40510        1.85641
H         -1.91248       -0.61285       -0.39689
H         -5.76760       -0.43475       -0.68466
H         -5.73206       -0.91572        1.01213
H         -4.79546        1.34525        0.66773
H         -3.62861        0.23351        1.39096
H         -3.64536        0.97478       -1.44921
H         -2.53910        1.39837       -0.30984
H         -4.92259       -2.74241       -0.15101
H         -3.91679       -1.85604       -1.07548
C         -5.09678       -0.71836        0.14330
C         -4.18177        0.45470        0.47292
N         -4.32020       -1.92649       -0.14657
N         -3.19546        0.66790       -0.59133
