28
1sa1msa1eda_42.log	Energy: -975731.8720584
S          0.56154        1.26077        0.16480
O          0.36447       -0.03417        0.95159
O         -0.50401        2.20648        0.45077
O          1.94736        1.70314        0.28203
O          0.43262        0.79520       -1.37024
H         -0.45921        0.38848       -1.48918
S         -2.90202       -0.61150       -0.17995
O         -3.97898       -1.56834       -0.29358
O         -1.98257       -0.45054       -1.31487
O         -2.05756       -0.99684        1.10573
H         -1.13337       -0.60071        1.06943
C         -3.55582        0.99019        0.22573
H         -4.16486        1.30821       -0.62141
H         -4.16578        0.88522        1.12278
H         -2.71624        1.67046        0.38467
H          3.94888       -2.54596        0.32614
H          2.22909       -2.57513       -0.15527
H          3.83524       -1.48940       -1.86878
H          2.46756       -0.48421       -1.39255
H          5.20439        0.08900       -0.95093
H          3.87673        1.01323       -0.58297
H          2.81585       -1.66322        2.16474
H          3.42026       -0.35017        1.30157
C          3.07605       -1.93214        0.09033
C          3.39638       -0.93575       -1.03367
N          2.74196       -1.13306        1.30029
N          4.29464        0.09089       -0.51082
H          1.76278       -0.71205        1.22214
