36
1sa1msa2dma_82.log	Energy: -1025815.5940486
S         -0.50173        1.77290       -0.17244
O         -1.86644        2.18304       -0.50632
O         -0.34468        0.96944        1.04486
O          0.20539        1.16429       -1.33640
O          0.32645        3.12943        0.18099
H          0.17283        3.77146       -0.52563
S          2.92225       -0.57960        0.10808
O          4.24244       -1.14555       -0.06575
O          1.77519       -1.48869        0.21433
O          2.67863        0.41848       -1.09251
H          1.71192        0.70152       -1.17278
C          2.90875        0.47658        1.53913
H          3.13532       -0.15354        2.40030
H          3.67965        1.23522        1.40489
H          1.91515        0.91984        1.63235
N         -0.94486       -1.68267       -0.18872
C         -0.72186       -1.93120       -1.62853
C         -0.96242       -2.90544        0.63609
H         -0.18550       -1.07807        0.15379
H         -1.53206       -2.55502       -2.01159
H         -0.70305       -0.96757       -2.13795
H          0.23974       -2.42908       -1.75777
H         -1.76938       -3.55743        0.29568
H         -0.00080       -3.41164        0.54565
H         -1.12965       -2.62371        1.67617
H         -1.87250       -1.14759       -0.06094
N         -3.31949       -0.32508        0.15314
C         -3.50697       -0.17175        1.59638
C         -4.48081       -0.89844       -0.51942
H         -3.10477        0.59474       -0.23656
H         -3.63509       -1.15827        2.05646
H         -2.61841        0.30453        2.01706
H         -4.38903        0.43605        1.84281
H         -4.64057       -1.92379       -0.16807
H         -5.40353       -0.33007       -0.33293
H         -4.30408       -0.92796       -1.59774
