26
1sa1msa1dma_22.log	Energy: -940997.6312966
S          1.96562       -1.03066       -0.17380
O          3.27564       -1.30758       -0.72830
O          1.19954       -2.15268        0.35457
O          2.22526        0.00787        1.09688
O          1.11154       -0.12222       -1.02148
H          2.96595       -0.34176        1.60966
H         -0.42631       -0.44178       -1.15387
S         -2.23027       -0.44547        0.09135
O         -1.43220       -0.45701       -1.27587
O         -3.62030       -0.21481       -0.23188
O         -1.56563        0.49411        1.01302
H         -0.38753        1.68978        0.59761
C         -2.00282       -2.07977        0.73980
H         -2.45020       -2.77985        0.03423
H         -0.92974       -2.25573        0.84859
H         -2.51626       -2.11444        1.70126
N          0.33119        2.22611        0.06931
C          1.13943        3.06431        0.97752
C         -0.34743        2.95899       -1.02296
H          0.90563        1.46214       -0.34764
H          0.49184        3.79536        1.46354
H          1.60207        2.41239        1.71686
H          1.91202        3.57532        0.40151
H         -1.02623        3.69758       -0.59476
H          0.40122        3.45131       -1.64468
H         -0.91243        2.24243       -1.61998
