38
1sa1msa1dma1eda_256.log	Energy: -1060542.9464821
S         -1.33539        0.02998       -0.36458
O         -1.79468       -0.42636        0.94425
O         -0.21677       -0.78215       -0.94556
O         -2.51848       -0.12223       -1.38800
O         -0.92719        1.46722       -0.40533
H         -3.43069       -0.30825       -0.89003
H          0.62967        1.53108       -0.84449
S          2.75742       -1.47711        0.22751
O          2.77923       -0.62680        1.40867
O          3.03029       -0.79679       -1.05254
O          1.43308       -2.29709        0.12256
H          0.66247       -1.70468       -0.25993
C          3.92402       -2.79929        0.42115
H          4.90781       -2.34086        0.52398
H          3.66059       -3.35192        1.32277
H          3.87831       -3.43628       -0.46137
N         -4.74494       -0.59444       -0.17256
C         -4.95568        0.45136        0.83493
C         -4.64833       -1.93442        0.41721
H         -5.50606       -0.57406       -0.84558
H         -4.08773        0.46648        1.49809
H         -5.02997        1.42189        0.33903
H         -5.86394        0.27730        1.42750
H         -3.76618       -1.96013        1.06088
H         -5.53852       -2.19275        1.00676
H         -4.51739       -2.67164       -0.37819
H          1.38872        4.23861       -0.70460
H          2.45191        4.39923        0.69257
H          3.40258        2.62179       -0.53912
H          2.50957        1.80646        0.76560
H          1.64371        2.11199       -2.03723
H          2.06200        0.70760       -1.23863
H          0.21502        4.39968        1.47446
H         -0.09467        2.91607        0.83411
C          1.70564        3.74301        0.23311
C          2.41091        2.43937       -0.11903
N          0.63896        3.52387        1.19399
N          1.64415        1.65197       -1.12860
