38
1sa1msa1dma1eda_255.log	Energy: -1060546.1262483
S          0.27009        1.90174        0.12671
O         -1.08734        2.40887        0.44217
O          1.16055        1.72683        1.26584
O          0.20744        0.74210       -0.79379
O          0.98503        3.09292       -0.72166
H          0.39323        3.34669       -1.44275
S         -3.02882       -0.49165       -0.19321
O         -2.22186       -0.80533        0.98698
O         -2.70482       -1.19366       -1.42577
O         -3.07587        1.06303       -0.41899
H         -2.25260        1.55442       -0.06429
C         -4.74306       -0.78103        0.18259
H         -4.99559       -0.23699        1.09213
H         -5.34037       -0.43539       -0.66099
H         -4.86573       -1.85525        0.32363
N          0.74199       -1.74765        0.24930
C          0.80660       -1.56320        1.71792
C         -0.06933       -2.90608       -0.17778
H          0.37961       -0.86707       -0.17232
H          1.23988       -2.45990        2.16651
H          1.43034       -0.69301        1.92520
H         -0.20175       -1.39169        2.09316
H          0.42512       -3.82298        0.15038
H         -1.06008       -2.82248        0.26562
H         -0.16232       -2.89292       -1.26344
H          1.73155       -1.87245       -0.09159
H          5.24182       -1.15667       -1.06067
H          3.84953       -1.28021       -2.15007
H          4.16831        1.04224       -1.28021
H          2.59798        0.36928       -0.86481
H          4.79500        0.84160        0.96866
H          3.17764        1.08086        1.14982
H          3.88100       -3.04402       -0.45675
H          3.77812       -1.88315        0.70726
C          4.14380       -1.10404       -1.11058
C          3.66980        0.27897       -0.66692
N          3.51695       -2.11943       -0.25067
N          3.88065        0.45164        0.76991
