36
1sa1msa1ma1tma_103.log	Energy: -1025807.9081181
S          0.30167        0.37892       -0.89385
O         -0.70085       -0.57567       -1.41568
O          1.43300        0.63711       -1.78084
O         -0.42832        1.79569       -0.75063
O          0.74772        0.00135        0.48355
H         -1.29527        1.66599       -0.29649
H          2.37334        0.30383        0.53222
S         -3.65079        0.03596        0.26159
O         -4.73249        0.23878       -0.68015
O         -2.74360        1.16292        0.52591
O         -2.79558       -1.23603       -0.10875
H         -1.95690       -0.98818       -0.63231
C         -4.32303       -0.50357        1.81485
H         -4.98968        0.28562        2.16359
H         -4.87799       -1.42529        1.64094
H         -3.50265       -0.66144        2.51374
N          2.45429       -2.44729        0.69352
H          2.48485       -3.25463        1.30763
C          2.40066       -2.88368       -0.70635
H          1.57660       -3.57273       -0.93165
H          2.28059       -2.00866       -1.35137
H          3.34199       -3.37405       -0.97466
H          1.59989       -1.93626        0.90721
N          3.33746        0.71872        0.64892
C          3.16511        2.17984        0.44909
H          2.78239        2.34109       -0.55885
H          2.43705        2.54701        1.17286
H          4.12748        2.67713        0.58886
C          3.77500        0.38430        2.02382
H          3.04927        0.78909        2.73035
H          3.80726       -0.70294        2.10569
H          4.75974        0.82146        2.20482
C          4.23345        0.12481       -0.37470
H          4.29400       -0.94597       -0.18060
H          3.78852        0.30299       -1.35342
H          5.21708        0.59443       -0.29692
