35
1sa1msa1ma1eda_125.log	Energy: -1035886.5269943
S          1.29550       -0.47817       -0.57171
O          0.02944       -0.32139       -1.34871
O          2.42811        0.23864       -1.17796
O          1.07858       -0.09113        0.84886
O          1.60700       -2.02363       -0.61644
H         -0.19218        1.10202        0.76863
H          2.58669       -2.15932       -0.32909
S         -3.03876       -0.66003        0.20399
O         -3.17840        0.77433       -0.09802
O         -2.51956       -0.98489        1.52242
O         -2.22938       -1.37444       -0.93287
H         -1.27959       -0.99236       -1.06112
C         -4.61246       -1.44349       -0.03955
H         -5.29118       -1.02749        0.70549
H         -4.95861       -1.22461       -1.04897
H         -4.48339       -2.51491        0.11116
N          4.12165       -2.03388        0.15007
H          4.75575       -2.78462       -0.10182
C          4.15515       -1.76207        1.59370
H          5.13933       -1.43905        1.95293
H          3.41780       -0.98806        1.81860
H          3.86246       -2.66625        2.13192
H          4.39132       -1.20718       -0.37857
H         -0.68084        4.03043        0.65546
H         -0.09271        3.10993        2.06533
H          1.78724        4.21927        0.72354
H          1.94614        2.46319        0.86129
H          1.53665        3.93504       -1.54380
H          1.88689        2.32211       -1.34526
H         -1.70248        1.82911        0.53344
H         -0.49769        1.95975       -0.60241
C         -0.07941        3.17599        0.97566
C          1.34813        3.26440        0.41579
N         -0.68905        1.95169        0.41204
N          1.30538        3.09580       -1.03141
