28
1sa1msa1eda_68.log	Energy: -975731.8237276
S         -0.65606       -1.84537       -0.02226
O         -1.98259       -2.43840       -0.07854
O          0.52487       -2.68629       -0.12039
O         -0.57142       -0.67985       -1.01275
O         -0.62881       -1.10780        1.41805
H         -1.98932       -0.00215       -1.03979
H          0.17816       -0.54560        1.46353
S          2.37533        0.74056        0.03076
O          1.40635        0.67690        1.13804
O          3.27159        1.87268       -0.02856
O          1.57606        0.68874       -1.33199
H          0.75165        0.10430       -1.24087
C          3.29836       -0.77795        0.02828
H          3.86159       -0.81118        0.96173
H          2.59097       -1.60917       -0.03376
H          3.97045       -0.75964       -0.82952
H         -4.00936        1.29102        0.73993
H         -2.80205        0.04717        1.18832
H         -2.02161        2.39946        1.74948
H         -0.95357        1.54946        0.63846
H         -2.72284        3.76358       -0.02350
H         -1.22874        3.41243       -0.58830
H         -3.66645       -0.19576       -1.11301
H         -2.97806        1.31778       -1.44668
C         -3.00183        0.91000        0.55200
C         -1.94602        1.99836        0.73262
N         -2.93501        0.46868       -0.86964
N         -2.11649        3.00630       -0.31758
