35
1sa1msa1ma1eda_249.log	Energy: -1035883.7224034
S          0.09535       -1.65809        0.07662
O         -1.23657       -2.29359        0.09202
O          1.24081       -2.55212        0.01268
O          0.18255       -0.81291       -1.30238
O          0.21575       -0.63143        1.16005
H         -0.59338       -0.20430       -1.33488
H          1.76617       -0.16180        1.32029
S         -3.13209        0.59905       -0.18331
O         -4.35978        1.28825       -0.50830
O         -1.94880        0.84426       -1.02227
O         -3.44202       -0.94708       -0.15868
H         -2.59679       -1.49439       -0.07780
C         -2.67031        0.95136        1.49869
H         -2.50292        2.02746        1.56463
H         -3.49572        0.65214        2.14459
H         -1.75467        0.39766        1.72222
N          2.28384        2.76848        0.48801
H          2.33784        3.66311        0.96279
C          0.95725        2.56318       -0.11347
H          0.66900        3.34741       -0.82172
H          0.94666        1.60494       -0.63765
H          0.20097        2.50307        0.67182
H          3.00060        2.73467       -0.23576
H          4.72851       -0.32001        0.92627
H          3.53506       -1.64418        0.84657
H          4.07240       -1.18958       -1.38608
H          2.47957       -0.50110       -1.13940
H          4.98328        1.01226       -1.33272
H          3.64223        1.14049       -2.24445
H          2.98385        0.15352        2.41517
H          2.70565        1.24179        1.14877
C          3.71500       -0.59276        0.61557
C          3.53337       -0.37753       -0.87997
N          2.75419        0.20911        1.42512
N          3.96944        0.95853       -1.30106
