40
1sa1msa2eda_292.log	Energy: -1095270.1186887
S          0.46882       -1.60032       -0.46343
O          1.13142       -0.66516       -1.41757
O         -0.91135       -1.93239       -0.87694
O          1.32721       -2.72674       -0.11878
O          0.32063       -0.76784        0.91829
H          3.48828       -1.68651        0.10288
H         -0.58529       -0.37940        0.99554
S         -3.31780        0.00448        0.20558
O         -4.36042        1.00268        0.17384
O         -2.19105        0.20081        1.13041
O         -2.75504       -0.14919       -1.26527
H         -1.98562       -0.79653       -1.25887
C         -4.00774       -1.60068        0.53992
H         -4.40710       -1.57723        1.55439
H         -4.80018       -1.78440       -0.18538
H         -3.20815       -2.33785        0.44958
H          2.50375        0.92558        0.77241
H          3.93910        1.32682        1.70456
H          4.29503        0.98276       -0.80648
H          5.33226       -0.06784        0.20514
H          2.75680       -0.83399       -1.11543
H          4.29457       -1.50579       -1.36247
H          3.73275       -0.69195        2.81153
H          2.24103       -0.84553        2.11184
C          3.44777        0.52296        1.14803
C          4.30358        0.17424       -0.07418
N          3.22728       -0.68455        1.93614
N          3.69951       -1.04104       -0.68169
H         -0.87425        1.91315       -0.54990
H         -1.23609        3.56038       -0.03952
H          0.22020        3.64789       -1.92667
H          1.12327        4.21482       -0.50510
H          1.30656        1.45676       -1.51224
H          2.38465        2.64138       -1.85144
H         -0.74056        2.21722        1.84429
H          0.73711        1.84829        1.27436
C         -0.43970        2.81032       -0.07716
C          0.67238        3.33325       -0.97328
N          0.02807        2.57389        1.28497
N          1.71895        2.31848       -1.15645
