35
1sa1msa1ma1eda_44.log	Energy: -1035902.3020113
S          1.30916       -1.64658       -0.58800
O          0.44985       -0.97487       -1.77955
O          1.08366       -3.08133       -0.58891
O          2.67066       -1.16239       -0.88311
O          0.79685       -0.97345        0.65858
H          2.29663        0.58553       -0.80756
H         -0.49481       -1.45660        1.40319
S         -2.03453        1.04338       -0.24311
O         -0.83403        1.88268       -0.48774
O         -2.35901        0.87140        1.19650
O         -1.97612       -0.26710       -0.95399
H         -0.48773       -0.81031       -1.49574
C         -3.40232        1.93339       -0.95879
H         -3.20229        2.06695       -2.02188
H         -4.30736        1.34534       -0.80664
H         -3.47964        2.89678       -0.45458
N         -1.44569       -1.64416        1.84306
H         -1.31665       -1.85799        2.82887
C         -2.13128       -2.73678        1.11295
H         -3.07781       -2.97012        1.60103
H         -2.31086       -2.38331        0.09833
H         -1.48178       -3.61142        1.08773
H         -1.94630       -0.73325        1.74335
H          1.01569        2.21129        1.55464
H          2.46188        3.10655        2.00675
H          1.93345        3.51889       -0.33119
H          3.47406        2.63016       -0.23227
H          0.81454        1.41995       -0.76290
H          1.94774        1.74904       -1.92475
H          2.19835        0.20080        1.59396
H          3.66697        0.95047        1.79028
C          2.10200        2.25142        1.42250
C          2.39747        2.57032       -0.04829
N          2.66937        1.02973        1.94755
N          1.84085        1.51771       -0.93880
