33
1sa1msa1ma1dma_79.log	Energy: -1001153.5296048
S          1.94015       -1.13144       -0.20541
O          3.08558       -0.50568        0.46085
O          0.92000       -1.58675        0.79134
O          1.34812       -0.39484       -1.31838
O          2.50191       -2.48805       -0.90286
H          3.05953       -2.94335       -0.25760
S         -2.27977       -0.62699        0.07795
O         -1.93796        0.02891       -1.18937
O         -2.18468        0.21546        1.26810
O         -1.48084       -1.95435        0.25468
H         -0.46123       -1.79995        0.43871
C         -3.91835       -1.29604       -0.05862
H         -4.59596       -0.45568       -0.21110
H         -3.94190       -1.97428       -0.91100
H         -4.15159       -1.81888        0.86843
N          1.66375        1.93597        1.42146
H          2.37196        1.22614        1.21795
C          0.81818        1.48059        2.53758
H          1.38522        1.29432        3.45662
H          0.04911        2.22967        2.74505
H          0.31701        0.55533        2.24770
H          2.15864        2.78548        1.67535
N          0.04619        2.06619       -0.81987
C          0.81867        2.53838       -1.98597
C         -1.07174        2.94431       -0.42401
H         -0.32196        1.12460       -1.02303
H          1.26596        3.50616       -1.75032
H          1.59102        1.79916       -2.19496
H          0.15435        2.63736       -2.84630
H         -0.67319        3.92395       -0.15194
H         -1.77379        3.04155       -1.25329
H         -1.57751        2.48847        0.42810
H          0.71104        1.97879        0.02109
