28
1sa1msa1eda_114.log	Energy: -975728.2443760
S          1.96801       -1.00424       -0.01804
O          1.05096       -2.06966        0.45272
O          1.38205       -0.17885       -1.08074
O          2.59078       -0.20933        1.05711
O          3.23952       -1.79579       -0.64218
H          2.90547       -2.47684       -1.24166
S         -2.16566       -0.63582        0.04452
O         -2.21031        0.22087       -1.13642
O         -1.66831       -0.03689        1.28024
O         -1.40284       -1.97597       -0.25930
H         -0.42324       -1.96100        0.02956
C         -3.79470       -1.29320        0.31238
H         -4.45326       -0.44685        0.50951
H         -4.10352       -1.81821       -0.59125
H         -3.75898       -1.96745        1.16733
H          0.00389        1.39124        1.15899
H          0.51047        2.88766        1.96744
H         -1.55593        3.07795        0.44641
H         -0.27354        4.23910        0.06264
H         -0.83315        1.76351       -1.40781
H         -0.71512        3.29543       -1.98880
H          2.23131        1.41274        0.71898
H          1.51079        2.07112       -0.65210
C          0.39080        2.39949        0.99916
C         -0.53412        3.17388        0.05712
N          1.72273        2.25289        0.34916
N         -0.35166        2.65631       -1.29315
H          2.29310        3.09215        0.42161
