33
1sa1msa1ma1dma_67.log	Energy: -1001156.3218776
S          1.17970       -1.61218       -0.23652
O          2.57129       -1.16296       -0.18452
O          0.44636       -1.63353        1.02555
O          0.42931       -0.89589       -1.32699
O          1.19057       -3.16859       -0.69146
H          1.77879       -3.25946       -1.45334
S         -2.57551        0.22409        0.07698
O         -3.87154        0.81052       -0.19424
O         -1.46509        1.10028        0.45869
O         -2.15456       -0.59800       -1.21134
H         -1.16297       -0.76965       -1.23209
C         -2.74083       -1.03562        1.32018
H         -3.04831       -0.53955        2.24166
H         -3.50617       -1.73640        0.98704
H         -1.77052       -1.52253        1.43643
N          1.15182        1.27373        1.84440
H          0.56482        1.89327        2.39439
C          2.46609        1.07889        2.46807
H          2.40554        0.67860        3.48678
H          3.03715        0.37632        1.85680
H          3.00251        2.03155        2.50079
H          0.65707        0.38221        1.79095
N          1.16595        1.81150       -0.84377
C          0.34702        2.97444       -1.23785
C          2.57593        1.88097       -1.27953
H          1.14317        1.68536        0.23315
H          0.32689        3.05988       -2.32617
H         -0.66014        2.82871       -0.84924
H          0.78746        3.87734       -0.81008
H          2.62202        1.98715       -2.36523
H          3.05007        2.74363       -0.80715
H          3.07085        0.95850       -0.97392
H          0.75022        0.93139       -1.19345
