39
1sa1msa1dma1tma_09.log	Energy: -1050489.0202793
S          0.95263        1.76106       -0.79195
O          1.05563        0.57467       -1.87767
O          2.16608        2.53262       -0.98702
O         -0.32569        2.46895       -1.01094
O          0.88831        1.03796        0.52911
H         -1.46315        1.81876        0.09140
H          1.74099       -0.27693        0.54825
S         -1.53182       -1.62287       -0.38996
O         -2.44236       -0.77263       -1.17184
O         -1.51669       -1.26968        1.06056
O         -0.14951       -1.68067       -0.95589
H          0.44692       -0.16942       -1.64006
C         -2.14787       -3.29639       -0.48370
H         -2.16224       -3.59171       -1.53301
H         -1.48787       -3.94570        0.09230
H         -3.15486       -3.30935       -0.06619
N         -2.04874        1.49451        0.89742
C         -3.47858        1.64515        0.55800
C         -1.61849        2.23855        2.09778
H         -1.82541        0.48274        1.01919
H         -3.68502        2.69604        0.34879
H         -3.67791        1.03031       -0.31926
H         -4.08521        1.30566        1.39963
H         -1.81331        3.30160        1.94797
H         -2.17083        1.87502        2.96621
H         -0.54886        2.07344        2.22404
N          2.48909       -1.01376        0.74228
C          3.58387       -0.25631        1.39366
H          3.91585        0.52656        0.71063
H          3.19691        0.20649        2.30148
H          4.40557       -0.93563        1.63268
C          1.88012       -2.01910        1.64258
H          1.51966       -1.51483        2.53932
H          1.03268       -2.46525        1.12417
H          2.62796       -2.77224        1.90336
C          2.92902       -1.61186       -0.54285
H          2.07672       -2.12135       -0.98989
H          3.25468       -0.81051       -1.20615
H          3.74686       -2.30982       -0.34548
