28
1sa1msa1eda_159.log	Energy: -975720.4860811
S          1.19504        1.76327       -0.08994
O          2.39671        2.55158       -0.02393
O         -0.03545        2.35476       -0.61526
O          1.40997        0.44782       -0.89754
O          0.91708        1.24533        1.38746
H          2.18762       -0.19603       -0.50348
H          0.02324        0.81500        1.40985
S         -2.47133       -0.07943        0.16524
O         -3.73253        0.48510        0.59247
O         -1.36556       -0.09851        1.14065
O         -1.95971        0.61247       -1.16638
H         -1.27670        1.31970       -0.98460
C         -2.70983       -1.73200       -0.42790
H         -1.74216       -2.13919       -0.73787
H         -3.13010       -2.29907        0.40381
H         -3.41872       -1.69059       -1.25514
H          3.01311       -3.27167        0.48205
H          2.67047       -2.08137        1.74111
H          0.64143       -3.29503        1.01241
H          0.49599       -1.55772        0.83212
H          0.72310       -1.75115       -1.49235
H          1.01231       -3.38279       -1.41686
H          3.92959       -0.83444        0.35096
H          3.47065       -1.60440       -1.00898
C          2.51234       -2.31706        0.68507
C          1.00441       -2.43870        0.43297
N          3.12760       -1.23782       -0.12502
N          0.57745       -2.59568       -0.94903
