35
1sa1msa1ma1eda_01.log	Energy: -1035906.3638424
S         -1.22176       -1.68701       -0.54612
O         -0.98621       -0.54035       -1.65456
O         -2.64452       -1.96012       -0.60844
O         -0.32434       -2.81645       -0.89563
O         -0.75394       -1.06482        0.73567
H          1.10231       -2.64691       -0.11760
H         -0.17099        1.92907        1.14689
S          2.16207        1.26498       -0.14959
O          2.85621        0.06665        0.39620
O          1.54171        2.10798        0.90409
O          1.21931        0.93024       -1.24799
H         -0.09769       -0.12500       -1.52879
C          3.44084        2.26396       -0.88654
H          3.91889        1.67863       -1.67201
H          2.97508        3.15767       -1.30169
H          4.15665        2.52707       -0.10781
N          1.95715       -2.47943        0.48239
H          2.72421       -3.04536        0.12692
C          1.64956       -2.79189        1.89705
H          2.50105       -2.52291        2.52232
H          0.77369       -2.20498        2.17064
H          1.42503       -3.85409        1.99486
H          2.23320       -1.46980        0.38992
H         -1.85978        3.24884        0.02839
H         -1.28753        1.91213       -0.99852
H         -3.79883        2.04749       -0.99548
H         -3.21256        0.51989       -0.34248
H         -4.41033        2.69960        1.17706
H         -4.58732        1.08204        1.34954
H         -1.70829        1.75401        1.89911
H         -1.05903        0.52961        0.95406
C         -1.85293        2.16254       -0.10095
C         -3.26680        1.59552       -0.14934
N         -1.14663        1.57542        1.06362
N         -3.91800        1.81397        1.14543
