20
1sa1msa1a_08.log	Energy: -891673.1187684
S          2.21678       -0.29390       -0.09360
O          1.01861       -0.13622       -0.96307
O          3.40411       -0.84381       -0.71439
O          2.43409        0.96794        0.66571
O          1.69631       -1.38779        0.99146
H          1.26100        1.96004        0.36206
H          2.46736       -1.85142        1.34463
S         -2.15540       -0.13730        0.10790
O         -1.90600        1.25253       -0.32671
O         -1.98716       -0.41229        1.52103
O         -1.31910       -1.11721       -0.79087
H         -0.34380       -0.82250       -0.84679
C         -3.78982       -0.59002       -0.41036
H         -4.48278        0.02298        0.16638
H         -3.88623       -0.39481       -1.47756
H         -3.93299       -1.64698       -0.18676
N          0.47130        2.60108        0.01856
H          0.72084        2.93278       -0.91044
H          0.34392        3.39117        0.64522
H         -0.41631        2.05526       -0.05868
