39
1sa1msa1dma1tma_64.log	Energy: -1050474.6923807
S         -0.68075        1.25320        0.73128
O          0.13480        2.21982        1.46309
O         -0.10869        0.92950       -0.61793
O         -0.96794       -0.00840        1.47117
O         -2.07811        1.93732        0.48067
H         -2.70012        1.25144        0.01906
S          1.07574       -2.47478        0.02619
O          1.51214       -3.85564        0.03718
O          2.07579       -1.42498       -0.18150
O          0.30398       -2.21898        1.37484
H         -0.11312       -1.29160        1.42122
C         -0.18507       -2.25313       -1.21434
H          0.26902       -2.49297       -2.17684
H         -1.00287       -2.93972       -0.99411
H         -0.49262       -1.20474       -1.18045
N         -3.56944        0.13395       -0.71347
C         -4.73523        0.70925       -1.38374
C         -3.91288       -0.91891        0.24647
H         -2.93290       -0.24331       -1.41056
H         -5.36067        1.21064       -0.64007
H         -4.40662        1.45499       -2.11101
H         -5.34493       -0.04821       -1.89609
H         -4.53559       -0.48723        1.03451
H         -4.46246       -1.74813       -0.22068
H         -2.99801       -1.28937        0.71216
N          2.52632        1.58157       -0.51633
C          3.32372        0.98632       -1.61501
H          3.41189       -0.08432       -1.43660
H          2.80538        1.16270       -2.55842
H          4.30742        1.46098       -1.63728
C          2.30097        3.03580       -0.71790
H          1.81946        3.18377       -1.68483
H          1.64068        3.38701        0.07529
H          3.26345        3.55157       -0.69005
C          3.12536        1.30745        0.81829
H          2.44935        1.70708        1.57447
H          3.21788        0.22857        0.93465
H          4.10272        1.79324        0.86873
H          1.56763        1.14434       -0.53685
