23
1sa1msa1ma_70.log	Energy: -916311.0481125
S         -2.15433       -0.39626        0.06220
O         -3.47704        0.14706       -0.04459
O         -1.20332        0.12462        1.03130
O         -2.23996       -1.96016        0.42093
O         -1.51582       -0.38849       -1.36878
H         -2.99854       -2.35316       -0.03612
H         -0.53257       -0.56903       -1.32001
S          2.02928       -0.42812       -0.11582
O          2.62598        0.86221       -0.38098
O          1.03397       -0.94352       -1.07102
O          1.39163       -0.47566        1.33899
H          0.42726       -0.24591        1.29973
C          3.29386       -1.65347        0.07866
H          3.82437       -1.70822       -0.87246
H          3.96272       -1.32414        0.87369
H          2.82207       -2.60469        0.32087
N          0.35292        3.01450        0.75050
H          1.31909        2.70688        0.77786
C         -0.15230        2.97216       -0.61650
H         -0.04731        1.99918       -1.12154
H         -1.21254        3.24099       -0.62014
H          0.37722        3.71289       -1.22221
H         -0.18435        2.39327        1.34488
