26
1sa1msa1dma_75.log	Energy: -940974.6011155
S         -2.20836       -0.45243        0.10658
O         -3.02447        0.73255        0.21533
O         -1.26906       -0.82019        1.14932
O         -3.19219       -1.71234       -0.01381
O         -1.49935       -0.45786       -1.28832
H         -4.03096       -1.41777       -0.39734
H         -0.51367       -0.63236       -1.20262
S          2.06089       -0.61649       -0.11463
O          2.84151        0.56241       -0.41842
O          1.02496       -1.04441       -1.06878
O          1.41314       -0.50952        1.32874
H          0.43060       -0.40767        1.26304
C          3.15954       -1.98704        0.13563
H          3.68412       -2.14701       -0.80678
H          3.86076       -1.71617        0.92482
H          2.57027       -2.86102        0.41052
N         -0.10026        2.02389        0.10288
C          0.20094        2.52682       -1.23287
C          0.68028        2.69604        1.13529
H         -1.08748        2.17341        0.29028
H          1.24294        2.29783       -1.47395
H         -0.43951        2.02665       -1.96416
H          0.05687        3.61623       -1.32943
H          1.74129        2.48171        0.97818
H          0.54641        3.79095        1.13594
H          0.39873        2.31085        2.11943
