32
1sa1msa1a1eda_155.log	Energy: -1011230.8380780
S         -0.99789       -1.70924       -0.20933
O         -0.92841       -0.63783       -1.23329
O         -0.49966       -1.18458        1.10881
O         -2.28604       -2.37519       -0.08761
O          0.03387       -2.83392       -0.66677
H          0.91499       -2.40806       -0.76409
S          2.55684        0.00257       -0.00675
O          2.52253        1.15398       -0.89330
O          2.36320       -1.33094       -0.58486
O          1.55075        0.21201        1.18108
H          0.71142       -0.41652        1.12556
C          4.10821        0.00165        0.86043
H          4.89148       -0.12233        0.11192
H          4.21450        0.95794        1.37214
H          4.10910       -0.82704        1.56754
N         -4.25645       -0.22090        0.72120
H         -4.38401       -0.22237        1.72872
H         -3.74314       -1.07692        0.48644
H         -5.17868       -0.29718        0.30346
H         -2.05497        2.72159        1.37652
H         -1.06044        1.24349        1.35910
H          0.33746        3.28330        0.89573
H          0.34331        2.16192       -0.45574
H         -1.06503        4.71495       -0.35350
H         -0.20701        4.04255       -1.57188
H         -3.14698        1.03714        0.06031
H         -2.49402        2.26694       -0.97844
C         -1.43022        2.07310        0.75466
C         -0.29101        2.85150        0.10780
N         -2.28382        1.51151       -0.31971
N         -0.85249        3.83906       -0.81837
H         -1.75368        0.75394       -0.81820
