30
1sa1msa2ma_108.log	Energy: -976489.5996381
S          0.73381       -1.06648       -0.18901
O         -0.46561       -1.92508       -0.11310
O          1.90979       -1.73021       -0.77912
O          0.38641        0.08425       -1.27882
O          1.04496       -0.36305        1.06988
H         -0.49613        0.46705       -1.05415
H          3.18760       -0.20294        1.35708
S         -3.18164        0.20693       -0.00420
O         -4.14716       -0.11538       -1.03480
O         -1.99986        0.99454       -0.39188
O         -2.71245       -1.08088        0.76994
H         -1.81452       -1.42861        0.43452
C         -4.00118        1.06673        1.31652
H         -4.41208        1.98351        0.89289
H         -4.79906        0.42595        1.69150
H         -3.27035        1.28470        2.09422
N          3.76426       -0.20620        0.51112
H          3.32875       -0.96170       -0.06211
C          5.20499       -0.38045        0.75640
H          5.72989       -0.37316       -0.19894
H          5.57330        0.43679        1.37726
H          5.38447       -1.33128        1.25859
H          3.51051        0.69931       -0.01420
N          2.71694        1.95610       -0.83762
H          3.23344        2.54939       -1.47933
C          1.97893        2.76729        0.14416
H          2.68575        3.31557        0.77345
H          1.29502        3.48657       -0.31993
H          1.39416        2.09338        0.77477
H          2.04083        1.42407       -1.38820
