33
1sa1msa1ma1dma_108.log	Energy: -1001153.5901344
S          0.87816       -1.73906       -0.16443
O          2.27430       -1.26385       -0.27787
O          0.24100       -1.50896        1.12790
O          0.08158       -1.27757       -1.33187
O          0.94049       -3.35490       -0.27212
H          1.38256       -3.59058       -1.09911
S         -2.61367        0.58861       -0.02680
O         -3.83911        1.31078       -0.29538
O         -1.38768        1.33855        0.25233
O         -2.35759       -0.36732       -1.26577
H         -1.42489       -0.74186       -1.25767
C         -2.87713       -0.55751        1.30850
H         -3.09764        0.03071        2.20048
H         -3.72660       -1.18826        1.04670
H         -1.96323       -1.14119        1.43910
N          1.09032        1.38994        1.75023
H          0.63113        2.19991        2.15454
C          2.13090        0.85355        2.63474
H          1.74932        0.55044        3.61613
H          2.57217       -0.02412        2.15618
H          2.91258        1.60483        2.78215
H          0.36152        0.69123        1.60427
N          2.01423        1.45421       -0.80669
C          3.33055        2.11495       -0.83764
C          1.05639        1.94000       -1.82071
H          2.14642        0.42892       -0.88839
H          3.20269        3.18121       -0.64190
H          3.96336        1.67311       -0.06688
H          3.79577        1.97598       -1.81543
H          0.88889        3.00749       -1.66801
H          1.45971        1.76232       -2.81937
H          0.11715        1.40619       -1.68898
H          1.59731        1.55190        0.19405
