30
1sa1msa2ma_62.log	Energy: -976491.7951870
S         -1.55889        0.82082        0.21831
O         -0.68957       -0.02773       -0.68056
O         -1.92109        0.13580        1.45411
O         -0.92817        2.15397        0.37242
O         -2.87607        1.09191       -0.60887
H          0.46009        2.21531       -0.38746
H         -3.53659        0.32209       -0.42274
S          2.34777       -1.04779        0.06436
O          2.54981       -0.33923        1.32167
O          2.58227       -0.24916       -1.15483
O          0.94990       -1.72595       -0.00477
H          0.19087       -1.01618       -0.23246
C          3.39637       -2.47777        0.01228
H          4.42444       -2.12234        0.08550
H          3.14520       -3.11019        0.86356
H          3.22775       -2.99715       -0.93027
N         -4.35420       -0.96851        0.08157
H         -4.12862       -0.91698        1.07266
C         -3.77646       -2.18439       -0.50590
H         -4.16561       -3.10768       -0.06158
H         -3.97729       -2.19533       -1.57957
H         -2.69385       -2.15534       -0.36606
H         -5.36413       -0.95450       -0.01371
N          1.43704        2.29339       -0.80650
H          1.74371        1.34533       -1.09838
C          2.37479        2.82955        0.20924
H          3.36009        2.96504       -0.23669
H          1.98965        3.77672        0.58582
H          2.43600        2.10047        1.01719
H          1.38138        2.88681       -1.63095
