32
1sa1msa1a1eda_288.log	Energy: -1011224.4477537
S          0.61234        1.23637       -0.14229
O          0.38574       -0.10163       -0.85346
O         -0.03481        1.20795        1.18951
O          2.11237        1.39058       -0.03949
O          0.03890        2.33822       -0.97907
H          2.74772        0.31433       -0.82681
H         -1.34464        2.71080       -0.32342
S         -2.85303       -1.10466        0.01012
O         -3.85326       -2.13020       -0.20072
O         -3.34556        0.27547        0.18135
O         -1.83787       -1.16409       -1.17816
H         -0.94725       -0.63901       -1.02409
C         -1.86695       -1.49307        1.44037
H         -2.54260       -1.49349        2.29677
H         -1.43614       -2.48329        1.29175
H         -1.09421       -0.72582        1.54891
N         -2.18365        2.73834        0.34561
H         -2.80305        3.52642        0.18697
H         -1.76825        2.75911        1.27706
H         -2.68526        1.82788        0.25272
H          5.23647       -0.49780       -0.03960
H          5.08949       -1.99420        0.88242
H          3.91192       -2.46952       -1.10813
H          2.62880       -2.05841        0.05795
H          3.64893       -0.38205       -2.13452
H          2.06815       -0.82063       -1.76900
H          4.53471       -0.18822        2.32269
H          3.29751        0.30422        1.35329
C          4.51920       -1.13857        0.50697
C          3.49389       -1.67467       -0.48606
N          3.86158       -0.49747        1.63223
N          2.99462       -0.59662       -1.38606
