36
1sa1msa1ma1tma_92.log	Energy: -1025810.0428112
S         -0.60457       -2.04232       -0.06230
O         -0.64511       -0.85114        0.90372
O         -0.21615       -3.27913        0.57049
O         -1.83614       -2.01670       -0.85534
O          0.62360       -1.67363       -1.04630
H          0.55066       -0.73336       -1.32549
S          1.12482        1.78430       -0.13317
O          0.42758        3.01193        0.22825
O          0.55395        1.04835       -1.27753
O          1.21154        0.82206        1.10730
H          0.49757        0.07770        1.06148
C          2.83731        2.09943       -0.43213
H          2.89159        2.75585       -1.30148
H          3.24432        2.59191        0.45143
H          3.31204        1.12381       -0.61234
N          3.62914       -1.06458       -0.40502
H          2.71656       -1.49419       -0.53907
C          4.03884       -1.18871        0.99460
H          4.07657       -2.22167        1.36690
H          5.02909       -0.74131        1.12632
H          3.33744       -0.62892        1.61900
H          4.27386       -1.56470       -1.00800
N         -2.75900        0.69149        0.20040
C         -3.93712       -0.13575        0.56345
H         -3.88591       -1.06386       -0.00553
H         -3.88984       -0.35946        1.62966
H         -4.84910        0.42018        0.33454
C         -2.66098        1.92078        1.02715
H         -2.60099        1.63211        2.07727
H         -1.76023        2.47050        0.74686
H         -3.54897        2.53377        0.85798
C         -2.72883        0.99736       -1.25437
H         -1.79884        1.51991       -1.47870
H         -2.75275        0.05185       -1.79512
H         -3.59392        1.61672       -1.50223
H         -1.91362        0.10063        0.41946
