28
1sa1msa1eda_116.log	Energy: -975727.3507711
S         -2.71769        0.38878       -0.17391
O         -4.15426        0.36252       -0.21765
O         -1.98794        1.51789       -0.74293
O         -2.22714        0.44449        1.37736
O         -2.16413       -0.95573       -0.67105
H         -2.55317       -0.33022        1.85639
H         -1.08148       -0.99721       -0.84049
S          1.18068       -1.48314        0.02509
O          2.56732       -1.23920       -0.36940
O          0.22193       -1.11627       -1.09019
O          0.75830       -0.81329        1.28662
H          0.48179        0.87327        1.04469
C          0.97351       -3.23093        0.28882
H          1.24380       -3.74092       -0.63589
H          1.63539       -3.52891        1.10210
H         -0.06888       -3.42167        0.54524
H          2.82958        1.04932        1.13292
H          3.12791        2.78976        0.94102
H          1.47338        2.96953       -0.82360
H          1.46284        1.21668       -1.07787
H          0.42604        2.52955        1.35816
H         -0.47955        1.87246        0.11341
H          4.85884        1.79188       -0.21659
H          3.88339        0.68073       -0.92412
C          2.90644        1.86396        0.39670
C          1.56983        2.00254       -0.32766
N          3.93531        1.64594       -0.60620
N          0.42767        1.83104        0.61711
