32
1sa1msa1a1eda_50.log	Energy: -1011239.3400720
S          2.49222       -0.92668       -0.06065
O          1.35615       -0.92761       -1.02243
O          3.06242        0.40976        0.13573
O          2.17420       -1.68593        1.15944
O          3.65769       -1.82694       -0.74456
H          4.06499       -1.30808       -1.45098
S         -2.90382       -0.25013       -0.14418
O         -2.81720       -1.56380       -0.80624
O         -2.71633        0.91996       -1.03950
O         -1.96622       -0.17688        1.03344
C         -4.54787       -0.09035        0.52696
H         -5.25379       -0.13309       -0.30283
H         -4.71898       -0.91451        1.21965
H         -4.61698        0.86812        1.04119
N         -0.46236       -2.39282        0.77937
H         -0.53813       -2.46830       -0.23677
H         -1.03715       -1.54304        1.03617
H         -0.84994       -3.22569        1.21254
H          0.54058       -2.24748        1.03240
H          1.78437        2.08265       -1.27623
H          0.39681        3.06882       -1.79713
H          1.88954        4.13852       -0.01389
H          0.18212        4.04010        0.44422
H          2.19227        2.06787        1.31343
H          1.36401        3.14295        2.26994
H          0.32778        0.50612       -0.87716
H         -0.05063        1.37060        0.47624
C          0.84039        2.52963       -0.95921
C          1.07928        3.44318        0.24562
N         -0.05574        1.41569       -0.55616
N          1.33529        2.60927        1.41130
H         -1.04807        1.47514       -0.86223
