32
1sa1msa1a1eda_64.log	Energy: -1011240.2449783
S          2.33512        1.01320       -0.21693
O          1.54437        0.93854        1.06089
O          1.29617        0.52884       -1.36350
O          2.71482        2.34922       -0.61516
O          3.41022       -0.01051       -0.17384
H          2.88416       -1.23299        0.82255
S         -1.10362       -1.89536       -0.21242
O         -1.86103       -1.06602       -1.15650
O         -1.21829       -1.43990        1.20128
O          0.34652       -2.04154       -0.59816
H          1.03187       -0.40665       -1.21633
C         -1.77429       -3.54581       -0.28132
H         -2.82909       -3.48993       -0.01174
H         -1.65586       -3.91418       -1.30043
H         -1.23046       -4.17573        0.42281
N          2.16705       -1.77028        1.38532
H          1.43442       -2.07605        0.69788
H          1.73009       -1.06591        1.98422
H          2.55716       -2.54102        1.91715
H         -0.97550        2.90831       -0.50784
H         -1.13929        1.26718       -1.16693
H         -3.29431        2.53906       -1.38179
H         -3.45438        1.11636       -0.34927
H         -3.30751        3.89585        0.57265
H         -4.39053        2.74084        0.97605
H         -0.04442        1.38777        1.04302
H         -1.56158        1.94201        1.65163
C         -1.48740        1.94898       -0.39288
C         -2.99937        2.10917       -0.41648
N         -1.08984        1.39390        0.92678
N         -3.41804        2.90175        0.74366
H         -1.36880        0.39912        1.02958
