33
1sa1msa1ma1dma_34.log	Energy: -1001158.0608193
S          1.36645        0.09529       -0.41416
O          1.49487        1.33104        0.40609
O          1.36676       -1.13682        0.38760
O          0.18211        0.21828       -1.31685
O          2.60697        0.03953       -1.38520
H          3.37315       -0.46732       -0.90890
S         -2.56458       -1.25829        0.10510
O         -3.89787       -1.79657       -0.04914
O         -2.42925        0.09810        0.66747
O         -1.85867       -1.30496       -1.29979
H         -1.00247       -0.75172       -1.31516
C         -1.57972       -2.34535        1.10755
H         -2.00452       -2.32780        2.11185
H         -1.65133       -3.34340        0.67499
H         -0.54764       -1.98374        1.09780
N          4.35707       -1.28577        0.04046
H          3.71030       -1.99927        0.36893
C          4.77608       -0.42706        1.15655
H          5.28933       -0.97446        1.95549
H          5.44125        0.35220        0.77822
H          3.89015        0.05783        1.57227
H          5.14999       -1.75123       -0.38845
N         -0.98218        2.40021        0.26325
C         -1.37991        3.21134        1.42983
C         -1.18606        3.05525       -1.04619
H          0.02441        2.10339        0.34982
H         -2.44519        3.43811        1.36626
H         -1.18141        2.63946        2.33608
H         -0.80076        4.13599        1.44194
H         -2.24807        3.26470       -1.18398
H         -0.61390        3.98389       -1.07449
H         -0.82921        2.37113       -1.81555
H         -1.51008        1.50529        0.28414
