41
1sa1msa1tma1eda_77.log	Energy: -1085216.9775002
S          0.75618       -1.00341       -1.23034
O         -0.15506       -2.25306       -0.94189
O          2.03966       -1.54670       -1.66970
O          0.06727       -0.10703       -2.18121
O          0.89845       -0.26888        0.08972
H         -0.69197        1.19945       -1.30041
H          2.30957       -0.37006        0.62550
S         -3.11506       -0.48849        0.53116
O         -3.63608        0.31237       -0.60329
O         -2.22785        0.32522        1.41321
O         -2.48474       -1.76860        0.11274
H         -1.05325       -1.99646       -0.55857
C         -4.51880       -0.96386        1.52165
H         -5.02303       -0.05635        1.85376
H         -5.17836       -1.56862        0.89918
H         -4.15556       -1.53999        2.37270
H          0.25159        2.86735        1.27636
H          0.70810        4.33461        0.42118
H         -1.60674        3.77793       -0.08636
H         -0.64379        3.59748       -1.56631
H         -1.36277        1.32214        0.23552
H         -2.24649        1.71050       -1.05268
H          1.43106        1.58383       -0.31586
H          1.87093        2.91983       -1.17289
C          0.46663        3.27559        0.28211
C         -0.81042        3.19862       -0.56159
N          1.63111        2.58091       -0.24627
N         -1.28677        1.80404       -0.69121
N          3.31097       -0.42596        1.01687
C          4.21528        0.14003       -0.01347
H          4.04986       -0.40636       -0.94283
H          3.96017        1.19225       -0.15144
H          5.25092        0.04193        0.32215
C          3.32048        0.37175        2.26258
H          3.05671        1.40094        2.01150
H          2.57915       -0.03859        2.94952
H          4.31389        0.33373        2.71651
C          3.56991       -1.86667        1.24844
H          2.83319       -2.24344        1.95888
H          3.45023       -2.38491        0.29619
H          4.57977       -1.99909        1.64460
