30
1sa1msa1a1dma_106.log	Energy: -976488.6889900
S          0.64403       -1.34283       -0.12578
O         -0.66517       -2.01227       -0.26511
O          1.77164       -2.10234       -0.69204
O          0.57388       -0.03542       -1.09045
O          0.91447       -0.83439        1.23162
H         -0.26595        0.44717       -0.89526
H          3.06177       -1.06418        1.76065
S         -3.05077        0.48388       -0.11452
O         -3.94060        0.44583       -1.25674
O         -1.73307        1.11700       -0.29092
O         -2.85573       -0.94662        0.51248
H         -1.98156       -1.38218        0.21859
C         -3.86717        1.29759        1.23686
H         -4.07240        2.31926        0.91599
H         -4.79627        0.76554        1.44073
H         -3.20460        1.28253        2.10140
N          3.67447       -1.03090        0.94359
H          3.55632       -0.00516        0.48711
H          3.22479       -1.67469        0.25915
H          4.62731       -1.29678        1.16892
N          3.08546        1.30867       -0.17819
C          4.09459        2.01507       -0.96692
C          2.46526        2.14429        0.85596
H          2.33725        0.97359       -0.78989
H          4.92445        2.31214       -0.31789
H          4.48018        1.35218       -1.74520
H          3.69134        2.91829       -1.44302
H          3.22005        2.43011        1.59594
H          2.02733        3.05921        0.43695
H          1.67906        1.56568        1.34656
