30
1sa1msa2ma_42.log	Energy: -976494.4354457
S         -1.28043       -1.47769       -0.29105
O         -2.73844       -1.49572       -0.19396
O         -0.71536       -1.00345       -1.56450
O         -0.65975       -0.78826        0.87704
O         -0.77207       -3.01740       -0.23030
H         -1.27040       -3.47440        0.46111
S          2.61268        0.26101        0.33638
O          3.95894        0.47305        0.81572
O          1.79596        1.43916        0.00755
O          1.85599       -0.61062        1.41165
H          0.87128       -0.69446        1.20037
C          2.63890       -0.78891       -1.10070
H          1.60992       -0.99819       -1.40463
H          3.17458       -0.24840       -1.88237
H          3.16757       -1.70496       -0.83733
N         -3.02852        1.45729        0.66890
H         -3.87880        1.97608        0.47223
C         -2.63582        1.62286        2.07594
H         -3.41160        1.30502        2.78187
H         -1.74029        1.02492        2.25551
H         -2.39993        2.67300        2.26878
H         -3.22950        0.47306        0.48063
N         -0.78862        1.75469       -0.96032
H         -0.80029        0.86884       -1.49129
H         -1.65154        1.72708       -0.32574
C         -0.77148        2.94447       -1.83048
H         -0.76710        3.84175       -1.21130
H          0.12450        2.93196       -2.45121
H         -1.65884        2.94290       -2.46418
H          0.07289        1.69435       -0.39201
