28
1sa1msa1eda_147.log	Energy: -975722.2891919
S          1.71712        1.40556       -0.01165
O          3.15932        1.18727        0.13701
O          1.15579        0.73031       -1.22099
O          0.89611        1.14176        1.17394
O          1.51973        3.00054       -0.27676
H          2.24788        3.29883       -0.83784
S         -3.03889       -0.18151        0.15387
O         -2.25874       -1.38871       -0.08934
O         -3.79714       -0.05067        1.38343
O         -4.09087       -0.07642       -1.07757
H         -4.97667        0.03966       -0.70444
C         -2.02073        1.23778       -0.12509
H         -1.23493        1.23886        0.63766
H         -1.56451        1.15159       -1.11209
H         -2.64733        2.12581       -0.04664
H          1.27316       -3.61506       -0.04487
H          1.23408       -2.84210       -1.64998
H          3.58988       -2.99520       -0.66303
H          3.08204       -1.34678       -1.04454
H          3.63013       -2.38366        1.55802
H          3.41573       -0.81536        1.06149
H         -0.43954       -1.88419       -0.02328
H          0.89676       -1.41094        0.89044
C          1.46111       -2.68857       -0.59323
C          2.89805       -2.19531       -0.37809
N          0.55735       -1.64566       -0.05530
N          3.05379       -1.76374        1.00589
H          0.65936       -0.75654       -0.60982
