27
1sa1msa1a1ma_94.log	Energy: -951830.9702940
S          2.29151       -0.39213       -0.14654
O          1.95158       -1.77968       -0.49908
O          2.18943        0.60385       -1.20988
O          1.59190        0.02957        1.10635
O          3.86112       -0.49885        0.24412
H          4.23364        0.39320        0.23295
S         -1.26199        1.65603        0.12297
O         -2.41841        2.43602        0.50858
O         -1.41215        0.19547        0.00841
O         -0.10686        1.95706        1.15281
H          0.61247        1.24159        1.11753
C         -0.61279        2.25791       -1.41738
H         -1.36400        2.06337       -2.18382
H         -0.44604        3.32938       -1.30645
H          0.32142        1.72954       -1.62409
N         -0.34363       -2.23993        0.90861
H         -0.48637       -1.25159        1.14458
H         -1.16687       -2.51629        0.28951
H          0.55213       -2.26017        0.36810
H         -0.26728       -2.80324        1.74959
N         -2.53430       -2.43190       -0.77592
H         -2.27046       -1.56136       -1.23354
C         -3.77973       -2.22349       -0.02526
H         -4.62747       -1.93622       -0.65771
H         -4.04075       -3.14011        0.51015
H         -3.61711       -1.42711        0.70467
H         -2.65788       -3.13465       -1.49765
