32
1sa1msa1a1eda_80.log	Energy: -1011237.0072491
S          2.83395       -0.21669       -0.19037
O          2.87440       -1.60263       -0.64949
O          2.43318        0.76744       -1.22029
O          2.08535       -0.03202        1.07774
O          4.34643        0.19624        0.24203
H          4.92609        0.03982       -0.51584
S         -2.25266       -1.10075       -0.18649
O         -2.33404        0.23004       -0.84970
O         -2.00454       -0.98088        1.28125
O         -1.28694       -2.01565       -0.83752
C         -3.87038       -1.82575       -0.37427
H         -4.07029       -1.92845       -1.44088
H         -3.86528       -2.80122        0.11217
H         -4.59913       -1.16491        0.09521
N          0.47079       -2.19454        1.30753
H          0.25602       -2.41623        0.32306
H         -0.43485       -1.85258        1.68132
H          0.82687       -3.00827        1.79876
H          1.16738       -1.40760        1.32094
H         -0.61501        1.17610        1.07059
H          0.77552        2.26430        1.03071
H         -1.43553        3.25677        1.90737
H         -0.61823        4.20586        0.66159
H         -2.76395        2.31138       -0.02699
H         -2.93274        3.95355        0.06492
H          0.84864        1.36355       -1.05563
H         -0.85591        1.15480       -1.10828
C         -0.21659        2.08546        0.61613
C         -1.15496        3.26666        0.84375
N         -0.07920        1.79708       -0.84277
N         -2.27320        3.20111       -0.08811
H         -0.19809        2.64807       -1.39172
