41
1sa1msa1tma1eda_83.log	Energy: -1085216.7432070
S          0.10411       -1.77528        0.53083
O          0.55158       -0.86531       -0.72719
O         -0.52046       -2.97478       -0.02145
O          1.36157       -2.00485        1.27425
O         -0.85547       -0.91240        1.28047
H          2.32041       -0.63399        1.17879
H         -2.13625       -0.57789        0.22948
S         -0.22003        2.44851       -0.00601
O         -0.52487        3.74814       -0.59359
O          1.21482        2.19908        0.29417
O         -0.80192        1.29768       -0.79602
H          0.03280        0.01032       -0.74323
C         -1.05042        2.36719        1.57802
H         -2.10834        2.58338        1.42038
H         -0.91075        1.36410        1.98492
H         -0.61209        3.12685        2.22628
H          4.73430        0.77129        0.13201
H          4.76842       -0.72564        1.11130
H          4.97048       -1.25220       -1.26368
H          3.45805       -1.90526       -0.62455
H          3.56336       -0.44676       -2.83382
H          2.27911       -0.32735       -1.82230
H          3.04195        0.70748        1.87954
H          2.32613        0.87492        0.41923
C          4.20298       -0.15182        0.37204
C          3.97945       -0.97462       -0.89152
N          2.90510        0.22163        0.99536
N          3.28233       -0.18782       -1.89720
N         -3.02472       -0.70385       -0.32258
C         -3.82548        0.53562       -0.19206
H         -4.01345        0.72091        0.86638
H         -3.24899        1.35632       -0.61936
H         -4.77287        0.40786       -0.72072
C         -2.65256       -0.97039       -1.73881
H         -2.13746       -0.09231       -2.12649
H         -1.98792       -1.83513       -1.75909
H         -3.56541       -1.16938       -2.30523
C         -3.68536       -1.88275        0.29347
H         -2.99457       -2.72491        0.23021
H         -3.88938       -1.66161        1.34129
H         -4.61529       -2.09251       -0.23954
