32
1sa1msa1a1eda_218.log	Energy: -1011228.6311774
S          1.63297       -1.41507       -0.46326
O          1.59203       -2.86392       -0.52921
O          0.50903       -0.74907       -1.21098
O          1.45850       -0.95498        1.06136
O          2.91330       -0.76247       -0.83295
H          0.63895       -1.41640        1.48459
H          3.01486        0.60406       -0.03108
S         -2.48544        0.33028       -0.23092
O         -2.14463        1.47938       -1.05660
O         -2.15479        0.43511        1.19956
O         -1.89938       -0.99704       -0.80964
H         -0.84909       -0.93698       -0.98672
C         -4.22226       -0.01320       -0.37949
H         -4.75119        0.84853        0.02841
H         -4.45324       -0.14670       -1.43585
H         -4.45184       -0.91375        0.18941
N         -0.71204       -2.07172        2.02655
H         -1.40882       -1.32715        1.99839
H         -0.68184       -2.47567        2.95606
H         -0.99260       -2.79621        1.37191
H          2.67015        3.56491        0.12284
H          2.73409        2.52594       -1.32654
H          0.35508        3.25578       -0.74784
H          0.56809        1.50818       -0.74936
H          0.21147        3.19682        1.58160
H         -0.33055        1.68025        1.29375
H          3.89346        1.74513        0.86998
H          2.30762        1.37684        1.30366
C          2.36299        2.60596       -0.30357
C          0.84419        2.42669       -0.22578
N          2.96799        1.52032        0.51556
N          0.46731        2.30139        1.18140
