33
1sa1msa1ma1dma_37.log	Energy: -1001157.6461359
S          1.33537        0.20172        0.61344
O          0.30971        0.51547        1.61639
O          1.09604       -1.10444       -0.07897
O          1.50358        1.30205       -0.37755
O          2.69819        0.02767        1.37550
H          3.34298       -0.53304        0.78264
S         -2.42398       -1.32822       -0.21480
O         -3.57586       -2.07246       -0.67429
O         -2.45275        0.13415       -0.38984
O         -1.15984       -1.91991       -0.93798
H         -0.27696       -1.52854       -0.60642
C         -2.12297       -1.65377        1.50705
H         -2.99824       -1.29854        2.05253
H         -2.00428       -2.73032        1.62866
H         -1.22608       -1.10632        1.80915
N          4.10192       -1.40564       -0.28885
H          4.90036       -1.94429        0.03040
C          4.44767       -0.56583       -1.44471
H          4.80150       -1.14189       -2.30701
H          3.56296        0.00543       -1.73432
H          5.22320        0.14410       -1.14942
H          3.36028       -2.05807       -0.53368
N         -0.95440        2.42049       -0.30698
C         -1.10227        3.28266        0.88385
C         -1.42464        3.01734       -1.57241
H          0.04957        2.11762       -0.39421
H         -2.15999        3.49945        1.04242
H         -0.69040        2.74196        1.73577
H         -0.55147        4.21105        0.72488
H         -2.48640        3.25270       -1.48698
H         -0.85446        3.92401       -1.78034
H         -1.27772        2.29154       -2.37186
H         -1.46898        1.53063       -0.15859
