23
1sa1msa1ma_35.log	Energy: -916327.1265053
S         -2.30655       -0.47230        0.12860
O         -1.05836       -0.23956        0.87322
O         -3.42924       -1.05139        0.84399
O         -2.65941        0.72325       -0.69470
O         -1.83030       -1.61088       -0.96336
H         -1.40298        1.65836       -0.77074
H         -2.62728       -2.04687       -1.29245
S          2.32382       -0.25386        0.02491
O          1.70665        0.45465       -1.09136
O          2.51710        0.43964        1.28591
O          3.78811       -0.71544       -0.50170
H          4.44423       -0.42702        0.14925
C          1.51982       -1.81108        0.25396
H          1.50627       -2.32547       -0.70664
H          2.07607       -2.37007        1.00598
H          0.50284       -1.57593        0.58538
N         -0.48483        2.21081       -0.72901
H          0.27397        1.53654       -0.92169
C         -0.29862        2.80549        0.61745
H          0.67062        3.30127        0.66996
H         -1.10260        3.51642        0.80647
H         -0.34538        1.99085        1.33901
H         -0.48179        2.91619       -1.46211
