42
1sa1msa2tma_13.log	Energy: -1075138.1206474
S         -0.82328        0.58779       -0.24297
O         -0.90141       -0.79824        0.31528
O         -0.82188        1.61749        0.80956
O          0.33045        0.73525       -1.17289
O         -2.10263        0.75868       -1.13160
H         -2.95290        0.33695       -0.63205
S          2.37454       -2.03811        0.10368
O          3.28642       -3.12187        0.40848
O          2.86133       -0.66225        0.23521
O          1.09809       -2.23924        1.00861
H          0.34496       -1.59970        0.77070
C          1.73974       -2.22403       -1.54920
H          2.59298       -2.16066       -2.22593
H          1.26407       -3.20183       -1.62251
H          1.03561       -1.41002       -1.73521
N          2.17291        2.29549        0.03210
C          3.49055        2.21787       -0.64195
H          3.92406        1.23981       -0.43785
H          3.33953        2.33831       -1.71539
H          4.13302        3.01663       -0.26368
C          1.46474        3.56471       -0.26995
H          1.35061        3.65334       -1.35054
H          0.48008        3.51638        0.19558
H          2.04810        4.40147        0.12123
C          2.28179        2.07293        1.49844
H          1.27189        2.06019        1.90881
H          2.75964        1.10811        1.66106
H          2.87234        2.88388        1.93198
H          1.56246        1.53500       -0.37075
N         -4.12033       -0.27112        0.04889
C         -3.96460       -0.00358        1.48308
H         -3.02896       -0.44791        1.82745
H         -3.91098        1.07525        1.64617
H         -4.80578       -0.41911        2.05771
C         -5.34302        0.33436       -0.47797
H         -5.32205        1.41149       -0.29531
H         -5.39877        0.16579       -1.55627
H         -6.24057       -0.09092       -0.00411
C         -4.06560       -1.70939       -0.22816
H         -4.14904       -1.87297       -1.30543
H         -3.10167       -2.09495        0.10948
H         -4.88127       -2.24588        0.27963
