28
1sa1msa1eda_161.log	Energy: -975722.3562978
S         -2.46552       -0.01832       -0.23050
O         -3.69809       -0.30661       -0.91245
O         -1.26990        0.18540       -1.12023
O         -2.51576        1.09959        0.75604
O         -2.12774       -1.35075        0.62153
H         -1.15096        1.73469        1.10559
H         -1.28210       -1.24493        1.09237
S          1.37959       -1.52209        0.13757
O          1.09676       -2.93897        0.11761
O          0.77046       -0.75001        1.24988
O          0.99212       -0.80809       -1.20485
H         -0.00807       -0.49240       -1.19362
C          3.13718       -1.26891        0.13601
H          3.51380       -1.65353        1.08437
H          3.54341       -1.84561       -0.69527
H          3.36360       -0.20935        0.01109
H          0.13961        1.91029       -0.76558
H          0.21350        3.52897       -0.06083
H          2.52744        3.25764        0.55501
H          2.30341        1.54852        0.85007
H          2.26883        1.28357       -1.60198
H          2.77316        2.84483       -1.73746
H          0.29735        1.01110        1.47797
H          0.00397        2.53663        2.10214
C          0.54254        2.49510        0.06289
C          2.07373        2.35280        0.13895
N         -0.10940        1.94212        1.28394
N          2.73290        2.04611       -1.11598
