35
1sa1msa1ma1eda_198.log	Energy: -1035884.6342186
S         -1.41051       -1.86029       -0.22741
O         -2.24529       -1.21615        0.79924
O         -1.71922       -1.55783       -1.61877
O          0.04061       -1.69390        0.10127
O         -1.72147       -3.43752       -0.00144
H         -1.40832       -3.91697       -0.78027
S          2.81469        0.06042       -0.19235
O          3.69422       -0.82775        0.54398
O          1.94325        0.94686        0.59403
O          1.94236       -0.71902       -1.24562
H          1.14040       -1.16679       -0.79073
C          3.77725        1.05701       -1.30383
H          4.43353        1.67120       -0.68655
H          4.36101        0.39128       -1.93913
H          3.10413        1.67556       -1.89640
N         -0.48468        0.54326        2.03524
H         -1.20455       -0.15244        1.76016
H          0.41254        0.20573        1.66805
C         -0.43246        0.78180        3.48743
H          0.35671        1.50193        3.70520
H         -1.39139        1.17897        3.82124
H         -0.22599       -0.15409        4.00669
H         -0.66973        1.43647        1.47590
H         -0.66720        2.53673       -1.84520
H         -0.43312        1.01405       -0.98164
H         -2.67103        1.08194       -1.97566
H         -2.78846        1.04831       -0.22449
H         -3.20713        3.41016       -1.90635
H         -4.20293        2.77042       -0.78482
H          0.23245        3.04569        0.28116
H         -1.37290        3.43872        0.36157
C         -0.99049        1.95576       -0.96842
C         -2.48349        1.67194       -1.07046
N         -0.71033        2.66817        0.28818
N         -3.22863        2.93492       -1.00946
