24
1sa1msa2a_73.log	Energy: -927165.7558969
S          2.21104       -0.53708       -0.00158
O          1.23961        0.09745        0.91000
O          1.93132       -1.93060       -0.33369
O          2.50142        0.31975       -1.18194
O          3.58265       -0.53200        0.88203
H          4.21482       -1.11705        0.44373
S         -2.45299       -0.45138       -0.13299
O         -1.82048        0.23325       -1.24992
O         -3.79505       -0.98154       -0.28059
O         -2.51019        0.64374        1.07857
H         -3.37981        0.57331        1.49809
C         -1.34770       -1.66527        0.52485
H         -1.11159       -2.35798       -0.28422
H         -0.43816       -1.15388        0.85395
H         -1.85742       -2.17311        1.34360
N          0.42355        2.00243       -1.48349
H          1.28895        1.39712       -1.44931
H          0.31276        2.47434       -0.53626
H          0.47459        2.67542       -2.24169
H         -0.38988        1.38552       -1.59997
N          0.09261        2.74829        1.17021
H          0.68646        1.96536        1.45280
H         -0.85740        2.50429        1.43659
H          0.36677        3.57824        1.68383
