33
1sa1msa1ma1dma_83.log	Energy: -1001154.7755437
S          0.46561        1.28509        0.36868
O          0.32525        0.39812       -0.83313
O          0.07453        0.56900        1.59426
O          1.80227        1.90195        0.41136
O         -0.52899        2.50656        0.16273
H         -1.43759        2.14307        0.03091
S         -3.07110       -0.28309       -0.32646
O         -4.29931       -0.79284       -0.89239
O         -2.86804        1.16923       -0.26269
O         -1.86652       -0.93164       -1.12435
H         -1.02155       -0.38112       -1.02725
C         -2.85987       -0.93106        1.31664
H         -3.67517       -0.53388        1.92275
H         -2.91832       -2.01802        1.25900
H         -1.89275       -0.58937        1.69273
N          1.91829       -1.79116        1.23666
H          2.38611       -2.26511        2.00322
C          1.07852       -2.73500        0.48456
H          0.33890       -3.24780        1.11006
H          0.54450       -2.18410       -0.29179
H          1.70806       -3.48939        0.00462
H          1.32078       -1.06802        1.64740
N          3.39682       -0.15063       -0.44836
C          3.19859       -0.51331       -1.86683
C          4.80550       -0.05196       -0.02701
H          2.90062        0.74554       -0.24123
H          3.60545       -1.51099       -2.04330
H          2.12769       -0.49008       -2.06843
H          3.70927        0.21115       -2.50377
H          5.29741       -1.01580       -0.17205
H          5.31480        0.71215       -0.61663
H          4.83837        0.22254        1.02792
H          2.88568       -0.85537        0.18153
