40
1sa1msa2eda_110.log	Energy: -1095293.7592859
S          1.72811        2.35916       -0.13278
O          2.71221        1.78174       -1.07171
O          0.47059        2.82075       -0.74731
O          1.49788        1.50159        1.04278
O          2.39316        3.74717        0.39452
H          3.30641        3.56139        0.64956
S         -1.25535       -2.06974       -0.11473
O         -1.88513       -1.26054        0.96309
O         -0.28339       -3.07140        0.35922
O         -0.69690       -1.18153       -1.18378
C         -2.58460       -2.97487       -0.89192
H         -3.02638       -3.63447       -0.14454
H         -3.32226       -2.26083       -1.25978
H         -2.16759       -3.55343       -1.71630
H         -2.61405        2.43453       -1.14754
H         -2.34418        0.69327       -1.38879
H         -4.76514        1.16484       -0.85044
H         -3.98472        0.17173        0.39510
H         -4.61719        3.02099        0.63778
H         -4.93736        1.80064        1.68258
H         -0.74841        1.89753        0.08936
H         -2.01700        1.99777        1.20135
C         -2.64285        1.45371       -0.66552
C         -4.00955        1.16937       -0.05387
N         -1.63337        1.45858        0.41861
N         -4.26620        2.14404        1.00699
H         -1.47763        0.48171        0.73940
H          1.76317       -2.88512       -1.04649
H          3.27954       -2.15243       -1.62608
H          3.49931       -3.75632        0.36381
H          4.21257       -2.15847        0.63454
H          1.51521       -2.88702        1.57405
H          2.84687       -2.54302        2.51182
H          1.00500       -0.84123       -0.93042
H          1.88574       -0.74581        0.46960
C          2.58022       -2.20858       -0.79065
C          3.26490       -2.68998        0.49248
N          1.97575       -0.87352       -0.55460
N          2.39904       -2.38325        1.61970
H          2.50128       -0.05803       -0.91109
