30
1sa1msa2ma_120.log	Energy: -976481.7556065
S         -1.60624        0.61829        0.33739
O         -2.80843        0.65334        1.16477
O         -0.31167        0.55211        1.04404
O         -1.64645       -0.75366       -0.49885
O         -1.57793        1.71785       -0.68689
H         -2.61174       -0.92710       -0.76691
H         -0.12178        2.14016       -0.88850
S          2.87543       -1.01474       -0.14936
O          3.96478       -1.91921       -0.46818
O          2.53509        0.05014       -1.08509
O          3.25881       -0.26536        1.23918
H          4.03685       -0.70374        1.61271
C          1.41254       -1.90299        0.29305
H          0.69601       -1.18405        0.70581
H          1.01950       -2.34195       -0.62491
H          1.69446       -2.67422        1.00977
N         -4.27053       -1.05324       -0.89955
H         -4.53998       -0.08740       -0.73075
C         -4.72951       -1.89917        0.20916
H         -5.81989       -1.91319        0.32666
H         -4.38089       -2.92241        0.04841
H         -4.27924       -1.52142        1.12912
H         -4.68014       -1.34094       -1.78187
N          0.93279        2.38279       -0.91363
H          1.44452        1.48765       -0.95663
C          1.31175        3.12685        0.31044
H          2.38555        3.31629        0.31168
H          0.75961        4.06604        0.34129
H          1.03055        2.50547        1.16021
H          1.14139        2.90712       -1.75997
