36
1sa1msa1ma1tma_89.log	Energy: -1025809.7405274
S          0.46032       -1.54483        0.34004
O         -0.30365       -1.08038        1.52230
O          0.64109       -0.40213       -0.62484
O          1.72029       -2.21387        0.63365
O         -0.44081       -2.61838       -0.41152
H         -1.35658       -2.25737       -0.48523
S         -3.05916        0.12679       -0.24628
O         -4.41208        0.62220       -0.14198
O         -2.83840       -1.30133       -0.50265
O         -2.28503        0.53386        1.07372
H         -1.53847       -0.11643        1.27973
C         -2.19654        1.03552       -1.50982
H         -2.68889        0.80959       -2.45660
H         -2.27769        2.09807       -1.28018
H         -1.15828        0.69730       -1.51562
N          0.68640        2.23653        0.94908
H          0.37064        1.39889        0.46374
C         -0.10025        3.38820        0.50474
H         -1.18053        3.27761        0.67138
H          0.23583        4.28906        1.02557
H          0.06673        3.54860       -0.56562
H          0.49771        2.05943        1.93154
N          3.20037        0.38683       -0.41414
C          3.95922       -0.66970       -1.12733
H          3.72802       -1.62600       -0.65753
H          3.63866       -0.68948       -2.16950
H          5.02726       -0.44954       -1.06499
C          3.33917        1.72221       -1.04313
H          3.01911        1.65494       -2.08379
H          2.69656        2.41190       -0.49147
H          4.38452        2.03587       -0.99369
C          3.53903        0.42870        1.03310
H          2.91378        1.19346        1.49566
H          3.32146       -0.54979        1.46194
H          4.59791        0.67521        1.14156
H          2.18117        0.11439       -0.48660
