27
1sa1msa1a1ma_113.log	Energy: -951830.9284391
S          1.03624        1.19484        0.08142
O          1.16306        0.20281       -0.99585
O          0.31465        0.56927        1.26672
O          2.26035        1.86039        0.48906
O          0.04728        2.34235       -0.44291
H         -0.71509        1.90429       -0.87627
S         -2.43833       -0.37869       -0.17554
O         -1.77486       -1.67114       -0.33562
O         -2.14728        0.65909       -1.16473
O         -2.18257        0.18452        1.27429
H         -1.18656        0.43608        1.34504
C         -4.19254       -0.62617       -0.09819
H         -4.49583       -1.02088       -1.06839
H         -4.40586       -1.34184        0.69508
H         -4.66636        0.33568        0.09456
N          1.01626       -2.01921        0.57298
H          0.77057       -2.92047        0.96983
H          0.62170       -1.23491        1.12460
H          2.07808       -1.82443        0.52318
H          0.59384       -1.89946       -0.35147
N          3.62460       -1.12773        0.42216
H          3.46064       -0.14166        0.63420
C          4.10482       -1.24302       -0.96446
H          5.04428       -0.70723       -1.13896
H          4.25469       -2.29795       -1.21109
H          3.33956       -0.82958       -1.62414
H          4.33517       -1.45071        1.07213
