28
1sa1msa1eda_140.log	Energy: -975724.6038547
S          0.47632       -1.42850        0.30457
O          1.78010       -2.09769        0.30068
O         -0.30364       -1.44199        1.52920
O          0.64279        0.00469       -0.21615
O         -0.34438       -2.16591       -0.84952
H          2.11788        0.07480       -0.87517
H         -1.21696       -1.71309       -0.94334
S         -2.83717        0.65900       -0.25869
O         -2.55756       -0.58967       -0.97837
O         -3.88483        1.52535       -0.74694
O         -1.50117        1.51703       -0.20090
H         -0.69021        0.92686       -0.20626
C         -3.13388        0.25554        1.44663
H         -4.05328       -0.33056        1.47780
H         -2.28470       -0.32619        1.81134
H         -3.25275        1.18982        1.99496
H          3.51348        2.40763       -0.98518
H          4.61803        2.47034        0.38680
H          5.08594        0.37013       -0.60059
H          4.02639       -0.02030        0.78007
H          3.31822        0.00080       -2.07836
H          3.09399       -1.20392       -0.92307
H          2.44541        3.08441        1.15389
H          1.80852        1.62894        0.72494
C          3.72639        1.96374        0.00511
C          4.08633        0.49528       -0.18010
N          2.66529        2.11056        0.98532
N          3.12329       -0.18906       -1.09760
