35
1sa1msa1ma1eda_83.log	Energy: -1035889.9363160
S         -2.66866        0.04232       -0.18671
O         -2.45274        0.09251        1.27301
O         -1.71477        0.95525       -0.89837
O         -2.73741       -1.28008       -0.78361
O         -4.13574        0.67298       -0.44603
H         -4.19638        1.51329        0.02828
S          1.48963        1.81952        0.02932
O          1.69396        1.23485       -1.29180
O          1.90486        0.99314        1.17342
O          0.02058        2.29698        0.22408
H         -0.71786        1.69806       -0.24368
C          2.34979        3.36797        0.13906
H          2.01038        4.00437       -0.67761
H          2.12867        3.81670        1.10703
H          3.41411        3.15062        0.04605
N          0.03540       -1.17056        1.61396
H         -0.89434       -0.72867        1.72081
H          0.17363       -1.33290        0.54860
C          0.15628       -2.44239        2.35024
H          1.13484       -2.86901        2.12653
H          0.04465       -2.27013        3.42140
H         -0.62975       -3.11676        2.00871
H          0.74895       -0.48430        1.87516
H          2.96215       -1.42601       -1.78589
H          3.28731       -3.11481       -1.38584
H          1.14766       -2.88739       -2.52557
H          0.93654       -3.52371       -0.88394
H          0.55411       -0.67985       -1.55085
H         -0.66593       -1.75808       -1.37524
H          3.79240       -2.10390        0.56471
H          2.65116       -0.95493        0.45426
C          2.65487       -2.25738       -1.13368
C          1.21344       -2.63244       -1.45831
N          2.83067       -1.94259        0.28769
N          0.29191       -1.55282       -1.09369
