32
1sa1msa1a1eda_12.log	Energy: -1011241.0512841
S         -2.42576       -1.10591        0.05679
O         -2.09229       -2.27101        0.88099
O         -2.99501        0.03784        0.76921
O         -1.30675       -0.73231       -0.86344
O         -3.55198       -1.59114       -1.01562
H         -4.33963       -1.85353       -0.51996
S          3.00462       -0.12812       -0.04010
O          2.72409        1.10763       -0.81914
O          3.10114       -1.35535       -0.85627
O          2.01706       -0.28561        1.07941
C          4.59618        0.12103        0.72193
H          5.33012        0.25721       -0.07270
H          4.54113        1.00836        1.35253
H          4.83240       -0.76222        1.31555
N          0.66707       -2.41601        0.08885
H          1.44473       -2.77703       -0.46643
H          0.13163       -3.12434        0.58696
H          1.09006       -1.70655        0.73294
H         -0.00106       -1.88815       -0.50784
H          0.01726        3.69450       -0.62994
H         -0.64977        2.70722       -1.95224
H         -2.42716        3.89541       -0.51931
H         -2.62856        2.14462       -0.63764
H         -2.15279        3.60489        1.72656
H         -2.41861        1.98184        1.53086
H          1.08359        1.54036       -0.55550
H          0.00131        1.70937        0.72712
C         -0.59765        2.82303       -0.86798
C         -1.98784        2.93435       -0.23324
N          0.07527        1.63676       -0.29529
N         -1.87518        2.77909        1.21465
H         -0.42080        0.76272       -0.56086
