42
1sa1msa2tma_55.log	Energy: -1075123.1787998
S          1.09704        0.52737       -0.69560
O          2.02955        1.62988       -0.91591
O         -0.06050        0.47076       -1.60400
O          1.80344       -0.79508       -0.62161
O          0.53218        0.79109        0.78502
H          3.19479       -0.52399       -0.05686
H         -0.21814        0.16944        0.94981
S         -2.31473       -1.66987        0.11363
O         -3.68965       -1.53642        0.55046
O         -1.24341       -1.21819        1.00978
O         -2.14636       -1.01574       -1.30661
H         -1.34547       -0.39884       -1.36737
C         -2.00122       -3.38300       -0.25073
H         -2.11690       -3.93826        0.68057
H         -2.73165       -3.71244       -0.98946
H         -0.98517       -3.46972       -0.63577
N         -2.59405        1.78212        0.28426
C         -2.82473        1.79307        1.71635
H         -3.37149        0.89186        2.00774
H         -1.86562        1.80009        2.24381
H         -3.40451        2.67919        2.04525
C         -1.80715        2.92763       -0.13546
H         -0.85382        2.93809        0.39875
H         -1.59070        2.85214       -1.20447
H         -2.32995        3.88685        0.05316
C         -3.84640        1.71319       -0.44765
H         -3.64177        1.63593       -1.51953
H         -4.40301        0.82295       -0.14427
H         -4.48003        2.60642       -0.27613
N          4.16962       -0.29801        0.35144
C          4.96093        0.30364       -0.74903
H          5.06287       -0.43124       -1.54827
H          4.41225        1.16951       -1.12071
H          5.94615        0.59124       -0.37333
C          3.95292        0.66660        1.45970
H          3.49573        1.56450        1.04413
H          3.26685        0.22214        2.18130
H          4.91162        0.89368        1.93248
C          4.74372       -1.57331        0.83094
H          4.08456       -1.98929        1.59359
H          4.81013       -2.26959       -0.00567
H          5.73685       -1.39664        1.25119
