33
1sa1msa1ma1dma_17.log	Energy: -1001169.9329345
S          2.28243       -0.43178       -0.45781
O          1.34268       -1.54852       -1.14876
O          3.54760       -1.10065       -0.24726
O          2.25033        0.76662       -1.29780
O          1.54874       -0.12815        0.85016
H         -0.39967        2.05377       -0.19408
H          0.59387       -1.29049        1.40362
S         -2.18228       -0.02105       -0.45625
O         -1.86515        1.37725       -0.83169
O         -2.20672       -0.21561        1.02806
O         -1.32374       -1.03202       -1.11994
H          0.43619       -1.18998       -1.29179
C         -3.84196       -0.31796       -1.03014
H         -4.50633        0.38737       -0.53110
H         -3.85459       -0.16532       -2.10934
H         -4.10914       -1.34544       -0.78313
N         -0.18872       -1.91305        1.76552
H         -0.07963       -1.99919        2.77328
C         -0.19903       -3.23716        1.09930
H         -0.97280       -3.86243        1.54589
H         -0.40741       -3.07511        0.04395
H          0.77975       -3.70277        1.20902
H         -1.06017       -1.36892        1.56095
N          0.33778        2.30866        0.49639
C         -0.34174        2.61929        1.77100
C          1.20904        3.38289       -0.02376
H          0.89046        1.42643        0.61944
H         -0.91144        3.54319        1.65963
H         -1.02220        1.79804        2.00233
H          0.40622        2.73470        2.55721
H          0.60365        4.26623       -0.23446
H          1.96612        3.61978        0.72545
H          1.69349        3.01246       -0.92589
