33
1sa1msa1ma1dma_25.log	Energy: -1001161.5362617
S          2.38149        0.63193        0.00886
O          1.12381        1.35575        0.18703
O          2.22682       -0.28499       -1.27432
O          3.61463        1.35479       -0.11361
O          2.53886       -0.39765        1.19138
H          1.71474       -0.96312        1.26275
S         -0.68220       -1.91041        0.15180
O         -1.96665       -1.33984        0.58964
O          0.38041       -1.89191        1.18595
O         -0.21250       -1.27312       -1.13469
H          1.32469       -0.71957       -1.27067
C         -0.96057       -3.62451       -0.23943
H         -1.72533       -3.67739       -1.01412
H         -0.02138       -4.05290       -0.58925
H         -1.29644       -4.12097        0.67108
N         -1.50912        1.51717        1.54950
H         -1.72435        0.53990        1.74540
C         -2.27891        2.41651        2.40996
H         -2.09209        2.26108        3.47930
H         -2.03498        3.45410        2.16749
H         -3.34637        2.26943        2.22569
H         -0.50696        1.62568        1.69208
N         -1.56025        1.23991       -1.17165
C         -0.97332        2.37168       -1.91419
C         -2.92828        0.87226       -1.58428
H         -0.95680        0.40204       -1.25127
H         -1.60286        3.25300       -1.77687
H          0.02327        2.55694       -1.51485
H         -0.91401        2.12669       -2.97653
H         -3.59493        1.71954       -1.41163
H         -2.93672        0.60863       -2.64375
H         -3.24012        0.01794       -0.98255
H         -1.56912        1.45507       -0.11109
