24
1sa1msa2a_58.log	Energy: -927172.9628432
S         -1.40362       -0.96991        0.12929
O         -1.02002       -0.12117       -1.05202
O         -0.88052       -0.31931        1.36857
O         -2.81438       -1.30226        0.15856
O         -0.61330       -2.34171       -0.02926
H          0.33269       -2.13056       -0.19596
S          2.33432        0.11578       -0.22787
O          3.58694        0.60929       -0.75330
O          1.93089       -1.26602       -0.50025
O          1.16732        1.07652       -0.72937
H          0.31456        0.53024       -0.93353
C          2.30635        0.35424        1.53532
H          3.09429       -0.27570        1.95024
H          2.51529        1.40437        1.74171
H          1.32465        0.04685        1.90088
N         -1.16685        2.29299        0.77949
H         -2.05423        2.20926        0.16501
H         -1.03175        1.33239        1.19771
H         -0.34463        2.47979        0.20228
H         -1.27014        3.00626        1.49523
N         -3.35891        1.67907       -0.76535
H         -4.15666        2.26104       -0.99950
H         -3.70582        0.82265       -0.33058
H         -2.92274        1.36702       -1.63079
