24
1sa1msa2a_36.log	Energy: -927174.9109777
S         -1.62131       -1.14707        0.04644
O         -2.27752       -0.07810       -0.72251
O         -0.70055       -0.48406        1.07379
O         -2.44618       -2.19224        0.59755
O         -0.59729       -1.89026       -0.95374
H          0.04248       -1.23459       -1.29467
S          2.21714        0.26578       -0.01489
O          2.25785        1.60491        0.56642
O          1.39373        0.13545       -1.23055
O          1.77452       -0.80089        1.03876
H          0.73489       -0.78593        1.13281
C          3.86534       -0.28640       -0.35603
H          4.28919        0.41064       -1.07939
H          4.42829       -0.26891        0.57691
H          3.81038       -1.29358       -0.76773
N         -0.61122        2.10838        0.11275
H          0.08247        2.71291        0.54785
H         -0.66498        1.20180        0.63150
H         -1.59218        2.50885        0.06050
H         -0.28479        1.85978       -0.82221
N         -3.34769        2.58820       -0.09520
H         -3.42905        1.59181       -0.31216
H         -3.76647        3.10881       -0.85915
H         -3.89952        2.77296        0.73650
