28
1sa1msa1eda_158.log	Energy: -975722.1110169
S          2.25463       -0.63614       -0.11583
O          1.39838       -0.53154        1.11417
O          3.55673       -1.21599        0.09244
O          1.49500       -1.60551       -1.12670
O          2.25776        0.72007       -0.77090
H          0.57823       -1.28226       -1.28092
H          1.73022        1.68854        0.15663
S         -1.85601       -1.23245        0.05721
O         -2.16632       -2.64531        0.02734
O         -1.09209       -0.66839       -1.07183
O         -1.10761       -0.83701        1.39475
H         -0.09309       -0.81980        1.26641
C         -3.34614       -0.29215        0.24960
H         -3.80356       -0.57861        1.19668
H         -3.09244        0.77051        0.21401
H         -3.99557       -0.56675       -0.58281
H         -0.59662        1.50894        1.15185
H         -0.57155        3.27166        1.35763
H         -0.03098        3.44451       -1.15410
H         -0.22957        1.68756       -1.23989
H         -2.34333        3.62787       -0.69438
H         -2.32113        2.36598       -1.73685
H          1.72932        3.29069        0.81517
H          1.55128        1.97865        1.81428
C         -0.18874        2.44036        0.75841
C         -0.56192        2.58530       -0.71361
N          1.29228        2.37602        0.91126
N         -2.01271        2.67800       -0.82359
