38
1sa1msa1dma1eda_370.log	Energy: -1060533.9252303
S          0.96809       -0.46709        0.73931
O          1.64034        0.83408        0.60106
O          0.25874       -0.90672       -0.48445
O          1.93374       -1.50149        1.21334
O         -0.09891       -0.36738        1.90728
H          3.35599       -0.97415        1.01255
H         -1.01509       -0.31586        1.54249
S         -3.23489       -0.58973       -0.29449
O         -4.07804        0.57545       -0.49366
O         -2.63190       -0.81138        1.02287
O         -2.11465       -0.62822       -1.40303
H         -1.18494       -0.66174       -0.99968
C         -4.18066       -2.03690       -0.70931
H         -5.00598       -2.09516        0.00094
H         -4.55525       -1.91808       -1.72586
H         -3.53211       -2.90843       -0.62561
N         -1.40541        2.06251        0.15996
C         -0.75908        2.51901       -1.05868
C         -0.99201        2.81637        1.33278
H         -2.41307        2.12073        0.05004
H          0.31554        2.32614       -0.97984
H         -1.14779        1.95516       -1.91104
H         -0.90390        3.59690       -1.25503
H          0.07220        2.63797        1.51369
H         -1.15132        3.90507        1.23033
H         -1.54586        2.46523        2.20793
H          5.71373       -0.83206       -0.83745
H          4.47977       -2.11974       -0.72191
H          4.13894       -0.45041       -2.65014
H          2.74860       -0.63332       -1.58418
H          4.14789        1.74026       -2.06629
H          2.93610        1.49072       -0.96046
H          5.02435       -0.84859        1.40437
H          4.24136        0.43876        0.66802
C          4.65678       -1.04447       -0.65859
C          3.77526       -0.25671       -1.63696
N          4.32220       -0.58871        0.71666
N          3.83656        1.16208       -1.29844
