40
1sa1msa2eda_99.log	Energy: -1095293.6229281
S         -2.95245       -0.35020       -0.11441
O         -2.10145       -0.18125        1.08257
O         -2.94625        0.83753       -0.99704
O         -2.73899       -1.61611       -0.82105
O         -4.44691       -0.40665        0.52716
H         -5.07823       -0.49758       -0.19925
S          2.54061        0.35091       -0.01472
O          2.25387       -0.13911        1.35314
O          2.95558        1.75653       -0.10641
O          1.37136        0.05820       -0.93548
C          3.87415       -0.65505       -0.63955
H          4.75938       -0.44128       -0.03961
H          3.57592       -1.69884       -0.52665
H          4.04533       -0.39690       -1.68474
H         -1.50775        2.93648        0.85016
H         -0.26231        1.75837        1.28186
H          0.46682        4.14698        1.74813
H          1.52760        3.29856        0.60771
H         -0.41224        5.38049       -0.07346
H          1.13626        5.19086       -0.57571
H         -1.41867        1.65556       -1.00308
H         -0.34992        2.92923       -1.37661
C         -0.49523        2.59447        0.62199
C          0.52788        3.72078        0.73922
N         -0.50482        2.10428       -0.78255
N          0.28891        4.69432       -0.33013
H          0.25388        1.40429       -0.94222
H         -0.34896       -3.70696        1.38632
H         -1.26011       -3.19913       -0.05229
H          0.39296       -4.91527       -0.66563
H          0.75998       -3.37630       -1.44988
H          2.16138       -4.38138        0.92852
H          2.78084       -4.13708       -0.56082
H         -0.70688       -1.24951        1.04240
H          0.91873       -1.66410        1.26860
C         -0.27427       -3.20676        0.41626
C          0.74393       -3.88912       -0.48222
N          0.09544       -1.79493        0.66586
N          2.08273       -3.80605        0.09547
H          0.38315       -1.29026       -0.19557
