36
1sa1msa2dma_147.log	Energy: -1025809.8327148
S          1.38352       -1.84499       -0.34734
O          1.97117       -3.04266       -0.90690
O          0.59165       -1.03561       -1.32953
O          0.26519       -2.30717        0.76324
O          2.25428       -0.98211        0.46770
H         -0.27832       -3.01942        0.39950
H          1.41689        0.28972        1.25013
S         -2.44286        0.03053       -0.09788
O         -1.59586        1.20026        0.17653
O         -2.68992       -0.87654        1.01172
O         -1.89916       -0.73530       -1.35478
H         -0.87674       -0.88099       -1.32557
C         -3.99207        0.60057       -0.75030
H         -3.79227        1.25558       -1.59746
H         -4.57498       -0.26947       -1.05196
H         -4.49377        1.14036        0.05332
N          0.77622        0.95288        1.74299
C          1.53659        2.13682        2.19025
C          0.06854        0.22998        2.82422
H          0.09548        1.23167        1.01855
H          2.31959        1.81743        2.87928
H          1.96492        2.60308        1.30421
H          0.85922        2.82907        2.69302
H          0.80059       -0.11493        3.55551
H         -0.64855        0.90526        3.29272
H         -0.45176       -0.62220        2.38856
N          1.37834        1.91680       -1.02218
C          2.80521        1.93396       -1.31326
C          0.65099        2.98705       -1.68575
H          1.00406        1.01570       -1.31117
H          3.25916        2.84016       -0.89197
H          3.27714        1.06229       -0.85230
H          3.02920        1.92252       -2.39301
H          0.96951        3.95538       -1.28080
H          0.81158        3.01411       -2.77725
H         -0.41797        2.87120       -1.49032
