23
1sa1msa1ma_77.log	Energy: -916310.9901244
S         -2.17163       -0.53044       -0.09049
O         -3.47627       -1.07240       -0.33717
O         -1.23804       -0.28536       -1.17655
O         -2.31898        0.91090        0.60958
O         -1.48893       -1.40460        1.01483
H         -3.08241        0.90450        1.20589
H         -0.51023       -1.19648        1.08434
S          2.02470       -0.72843       -0.00183
O          2.53783       -2.00266       -0.44732
O          1.03243       -0.72023        1.08912
O          1.42101        0.10301       -1.21696
H          0.43781       -0.01779       -1.25940
C          3.35476        0.34629        0.46004
H          3.86036       -0.12476        1.30355
H          4.02827        0.43352       -0.39254
H          2.93551        1.31195        0.74065
N         -0.09179        3.03546       -0.71889
H         -0.98504        2.56879       -0.82962
C          0.38773        2.90223        0.65039
H          0.50778        1.86666        1.00589
H          1.34937        3.41740        0.74771
H         -0.30978        3.40252        1.32797
H          0.55437        2.60691       -1.37182
