42
1sa1msa2tma_38.log	Energy: -1075128.5882514
S          1.09169        2.18483       -0.43897
O          1.98550        2.23861        0.71637
O          1.68856        2.37393       -1.75261
O          0.20510        0.97047       -0.34288
O         -0.00249        3.38489       -0.25963
H          0.27841        4.11229       -0.83054
S         -2.83748       -0.43217       -0.16541
O         -2.56201       -0.00584        1.20673
O         -2.51315       -1.81142       -0.50330
O         -2.16908        0.56957       -1.18422
H         -1.22032        0.80079       -0.90161
C         -4.54262       -0.11878       -0.54960
H         -5.13713       -0.77934        0.08207
H         -4.75702        0.92707       -0.33298
H         -4.70355       -0.34464       -1.60350
N          0.81193       -0.49309        1.90417
C          0.22775        0.49079        2.85425
H          0.74275        1.44127        2.71379
H         -0.83167        0.59888        2.62198
H          0.36668        0.11829        3.87180
C          0.12968       -1.80922        1.97646
H         -0.93845       -1.65822        1.82576
H          0.53602       -2.43699        1.18457
H          0.32020       -2.24943        2.95812
C          2.28012       -0.62475        2.07951
H          2.63532       -1.33988        1.33879
H          2.73238        0.35159        1.90485
H          2.48060       -0.97750        3.09391
H          0.64749       -0.09702        0.95175
N          1.88302       -1.99286       -0.93503
C          2.95455       -1.15760       -1.46171
H          2.60556       -0.12950       -1.58048
H          3.80419       -1.15712       -0.77005
H          3.31596       -1.51503       -2.44376
C          2.33527       -3.36374       -0.76732
H          3.17460       -3.40094       -0.06355
H          1.52324       -3.98141       -0.36888
H          2.66918       -3.81854       -1.71876
C          0.71035       -1.93690       -1.80097
H         -0.12760       -2.47022       -1.34280
H          0.41215       -0.89615       -1.93733
H          0.90910       -2.37959       -2.79448
