30
1sa1msa2ma_28.log	Energy: -976494.4944943
S          1.21550       -1.80076       -0.01216
O          1.92613       -1.25808        1.15167
O          0.10293       -2.71016        0.24651
O          0.84722       -0.71743       -0.98033
O          2.36235       -2.66393       -0.76714
H          1.92140       -3.29194       -1.35511
S         -2.41752        0.31130       -0.02063
O         -3.54357        1.16449       -0.33025
O         -1.63580        0.59315        1.19119
O         -1.45113        0.35058       -1.27488
H         -0.57806       -0.14477       -1.11667
C         -2.92658       -1.38817        0.05869
H         -3.60282       -1.47772        0.90966
H         -3.44217       -1.62468       -0.87201
H         -2.03573       -2.00681        0.19653
N          1.30102        2.19667       -1.24417
H          1.56387        1.26649       -1.56708
C          2.21089        3.22208       -1.76083
H          2.25533        3.25941       -2.85603
H          1.89778        4.20377       -1.39617
H          3.21930        3.03164       -1.38469
H          0.35402        2.34619       -1.58381
N          1.04013        1.36761        1.41675
H          1.19785        1.78520        0.45062
H          0.02592        1.17840        1.47465
C          1.51581        2.24440        2.50153
H          1.32903        1.77151        3.46563
H          2.58617        2.41380        2.38252
H          0.98862        3.19756        2.45458
H          1.49806        0.43459        1.42361
