32
1sa1msa1a1eda_65.log	Energy: -1011239.4237567
S          2.52230       -0.92217        0.03081
O          2.92442        0.45344        0.33794
O          2.29382       -1.79518        1.18456
O          1.39906       -0.99155       -0.95535
O          3.73568       -1.57629       -0.83436
H          4.53625       -1.54659       -0.29305
S         -2.89412       -0.28844       -0.09473
O         -2.94077       -1.62928       -0.71387
O         -2.70608        0.83121       -1.05209
O         -1.87130       -0.23228        1.00586
C         -4.47552       -0.01389        0.68087
H         -5.23817       -0.03917       -0.09761
H         -4.64241       -0.80698        1.40985
H         -4.45383        0.96084        1.16808
N         -0.47585       -2.47080        0.41003
H         -1.24623       -2.92793       -0.08186
H          0.02817       -3.07686        1.05251
H          0.20958       -2.07226       -0.26699
H         -0.91203       -1.65003        0.89710
H          1.82150        2.07128       -1.25469
H          0.43836        2.95609       -1.94418
H          1.76047        4.21847       -0.15143
H          0.02914        4.08383        0.19473
H          2.03350        2.25635        1.34845
H          1.11665        3.37597        2.16145
H          0.36967        0.47342       -0.89785
H         -0.04689        1.37586        0.42270
C          0.84185        2.50128       -1.03873
C          0.95919        3.51164        0.10490
N         -0.03558        1.38221       -0.61134
N          1.15997        2.77851        1.34666
H         -1.02614        1.41305       -0.92561
