40
1sa1msa2eda_82.log	Energy: -1095293.7798054
S          2.30154        1.61156        0.07747
O          3.41124        0.87998       -0.52780
O          1.30695        2.12522       -0.89133
O          1.64700        0.91687        1.21239
O          2.94015        2.92025        0.80615
H          3.55576        3.33335        0.18564
S         -2.25075       -1.73564        0.06967
O         -1.63362       -2.74374       -0.80020
O         -2.71314       -0.50231       -0.63324
O         -1.37305       -1.36386        1.23132
C         -3.71624       -2.46361        0.77921
H         -4.39574       -2.71205       -0.03636
H         -3.42080       -3.36369        1.31867
H         -4.17168       -1.73993        1.45513
H         -2.54813        2.49409        1.44489
H         -1.06948        3.42948        1.11775
H         -2.87707        4.34429       -0.23616
H         -1.70779        3.58194       -1.29857
H         -3.21885        1.73203       -1.57062
H         -4.27882        2.38422       -0.51007
H         -0.66718        1.03643        1.11616
H         -1.74082        0.79419       -0.11889
C         -1.80520        2.74718        0.68358
C         -2.47443        3.37344       -0.54363
N         -1.09717        1.49982        0.31118
N         -3.53700        2.60562       -1.16456
H         -0.30118        1.71349       -0.32590
H          0.77228       -2.69390       -1.05311
H          1.24849       -0.99631       -1.19897
H          3.07442       -2.51556       -2.02577
H          3.58326       -1.51160       -0.66537
H          2.92227       -4.36895       -0.53499
H          4.24677       -3.59609        0.03581
H          0.26132       -1.78273        0.99988
H          1.78588       -2.54481        1.21636
C          1.48526       -1.94201       -0.70800
C          2.93426       -2.34400       -0.95146
N          1.27973       -1.77979        0.75672
N          3.24950       -3.50534       -0.11463
H          1.64295       -0.86008        1.07272
