28
1sa1msa1eda_115.log	Energy: -975727.0912269
S          0.61012       -1.21797       -0.08043
O         -0.67662       -1.92481        0.07216
O          1.74175       -2.03310       -0.50037
O          0.41367       -0.16053       -1.27938
O          0.92425       -0.38886        1.12824
H         -0.43912        0.31713       -1.14014
H          2.41763       -0.15333        1.26169
S         -3.17325        0.46596       -0.10409
O         -4.21310        0.14247       -1.05888
O         -1.92128        1.04452       -0.61633
O         -2.83444       -0.76750        0.81441
H         -1.97663       -1.23706        0.52960
C         -3.82888        1.58132        1.11349
H         -4.12478        2.48910        0.58699
H         -4.69434        1.10692        1.57590
H         -3.05225        1.78835        1.84872
H          5.19301       -0.01370        0.09125
H          3.80145       -0.99552       -0.48052
H          4.10135        1.13142       -1.82610
H          2.53298        1.01435       -1.03109
H          4.72597        2.78617       -0.27826
H          3.11401        3.06517       -0.28160
H          3.90282       -0.58261        1.99037
H          3.59866        1.02946        1.61472
C          4.10678       -0.04874       -0.03391
C          3.60429        1.14011       -0.84963
N          3.48344        0.05186        1.31547
N          3.82262        2.36992       -0.08230
