24
1sa1msa2a_74.log	Energy: -927166.7882191
S         -1.64688       -1.07673       -0.10720
O         -1.31571       -2.46845        0.14506
O         -3.05059       -0.71145       -0.28693
O         -1.25048       -0.21858        1.24015
O         -0.75946       -0.46964       -1.16443
H         -0.31301       -0.38228        1.44828
H         -0.87338        1.10863       -1.18049
S          2.27442        0.18732        0.12622
O          1.91109        1.44423       -0.50370
O          1.60153       -0.22423        1.35465
O          3.85032        0.28823        0.48677
H          3.97098        0.00237        1.40431
C          2.24926       -1.12094       -1.06471
H          1.20047       -1.22356       -1.36312
H          2.88576       -0.82690       -1.89931
H          2.61351       -2.02576       -0.57882
N         -0.90448        2.15880       -0.98384
H         -1.02544        2.68461       -1.84419
H         -0.00467        2.38993       -0.56031
H         -1.72556        2.31736       -0.31600
N         -3.10348        2.11254        0.70334
H         -2.78125        1.95060        1.65344
H         -3.42394        1.19854        0.36823
H         -3.89764        2.74245        0.74279
