40
1sa1msa2eda_89.log	Energy: -1095294.0457377
S          2.41296       -1.66354        0.12848
O          3.17595       -0.74168        0.97181
O          1.62615       -2.67833        0.83111
O          1.61491       -0.95115       -0.91752
O          3.49318       -2.46253       -0.79681
H          4.02779       -3.01650       -0.21222
S         -2.42690        1.57166       -0.04511
O         -3.20990        0.63690       -0.87648
O         -1.77069        2.67817       -0.75440
O         -1.41710        0.80624        0.79405
C         -3.55990        2.28460        1.13525
H         -4.30728        2.84904        0.57683
H         -4.02830        1.47617        1.69679
H         -2.99862        2.94268        1.79850
H          1.62774        3.04796        1.38813
H          2.26701        1.39627        1.64528
H          4.07494        2.93033        0.86342
H          3.76385        1.61175       -0.26503
H          2.95989        4.40671       -0.63695
H          3.69583        3.39583       -1.69362
H          0.14621        1.45643        0.37002
H          0.95273        2.32707       -0.81734
C          2.07022        2.17221        0.90521
C          3.34221        2.53233        0.14918
N          1.07584        1.64771       -0.06028
N          3.01404        3.44277       -0.94692
H          1.39485        0.74501       -0.47132
H         -1.33614       -3.67012       -0.36806
H         -0.93829       -2.83376        1.14768
H         -3.40065       -3.54231        0.94385
H         -3.17876       -1.81575        1.23047
H         -4.56959       -2.87556       -0.86772
H         -3.93276       -1.35126       -0.86071
H         -0.07035       -1.63334       -0.80042
H         -1.65959       -1.51176       -1.37342
C         -1.53302       -2.78165        0.23487
C         -3.02959       -2.61707        0.49417
N         -1.07209       -1.60371       -0.53864
N         -3.71830       -2.34110       -0.76422
H         -1.20353       -0.72793        0.01609
