41
1sa1msa1tma1eda_94.log	Energy: -1085211.5837990
S          0.93734        0.38050       -0.43898
O          1.14079       -0.95033        0.15837
O         -0.41375        0.49282       -1.11209
O          1.11754        1.50329        0.49456
O          1.95693        0.53587       -1.62396
H          2.84516        0.00269       -1.42201
S         -2.64198       -1.80187        0.04785
O         -3.87716       -2.53071       -0.15484
O         -2.67374       -0.56216        0.82992
O         -2.04260       -1.48434       -1.38225
H         -1.33845       -0.76137       -1.31913
C         -1.42040       -2.87321        0.76758
H         -1.75146       -3.10430        1.78081
H         -1.37263       -3.77740        0.16067
H         -0.46473       -2.34270        0.76745
H          5.95101       -0.73271       -0.05369
H          5.34192        0.83285       -0.64440
H          5.09660        0.48884        1.83570
H          3.57335        0.85903        1.02296
H          3.92713       -1.25162        2.63885
H          2.82297       -1.23796        1.42393
H          4.59035       -1.03897       -2.00506
H          3.81870       -1.66875       -0.70321
C          5.04856       -0.12762       -0.20857
C          4.35403        0.09469        1.13427
N          4.12119       -0.79616       -1.13749
N          3.81596       -1.17067        1.63685
N         -1.88211        2.35121        0.20381
C         -1.73478        2.28077        1.68109
H         -2.22505        1.37270        2.02853
H         -0.66908        2.23505        1.90526
H         -2.19490        3.16811        2.12254
C         -1.17752        3.53086       -0.35893
H         -0.12485        3.45450       -0.08601
H         -1.27429        3.50805       -1.44471
H         -1.62817        4.44089        0.04345
C         -3.30300        2.29653       -0.21880
H         -3.34361        2.27716       -1.30860
H         -3.74345        1.38393        0.18078
H         -3.81980        3.18138        0.15987
H         -1.39320        1.51423       -0.20552
