32
1sa1msa1a1eda_238.log	Energy: -1011225.4436113
S         -2.04228       -0.08076        0.10720
O         -0.58530       -0.02420       -0.21121
O         -2.38886       -0.87255        1.28388
O         -2.56008        1.31662        0.13644
O         -2.69670       -0.78271       -1.16114
H         -1.44743        2.31242       -0.33457
H         -3.42120       -1.42576       -0.85665
S          2.51972       -1.22207        0.02812
O          2.59312       -0.60293        1.34495
O          2.87164       -0.38087       -1.11752
O          1.11692       -1.89646       -0.20234
H          0.37040       -1.19317       -0.20306
C          3.53228       -2.68140       -0.00221
H          4.56115       -2.35357        0.14870
H          3.21304       -3.33835        0.80625
H          3.41684       -3.16269       -0.97277
N         -4.46966       -2.47305       -0.09138
H         -4.06615       -2.35785        0.83703
H         -4.41475       -3.45122       -0.35281
H         -5.44671       -2.20416       -0.05461
H          0.40368        4.46267        0.53487
H         -0.51585        3.30174        1.52703
H          2.01735        2.81353        1.39582
H          0.98618        1.47391        0.89192
H          2.59883        3.13993       -0.84923
H          2.24692        1.53626       -0.94863
H         -1.21859        3.86574       -0.95427
H         -0.02576        2.71529       -1.24937
C          0.09345        3.41835        0.62960
C          1.30995        2.48236        0.62802
N         -0.72523        3.06783       -0.56350
N          1.86388        2.45371       -0.72336
