40
1sa1msa2eda_68.log	Energy: -1095294.3376676
S          2.80899       -0.43329        0.00340
O          2.71243       -1.71218       -0.69660
O          3.09736        0.73565       -0.82979
O          1.66587       -0.19607        0.94016
O          4.04051       -0.56675        1.06567
H          4.83888       -0.78082        0.56422
S         -3.15393        0.46575       -0.12691
O         -3.43587       -0.87392       -0.66271
O         -2.64670        1.46227       -1.08572
O         -2.22029        0.37997        1.07221
C         -4.68804        1.09658        0.53305
H         -5.39477        1.17831       -0.29330
H         -5.05404        0.39388        1.28167
H         -4.50290        2.07484        0.97683
H         -0.36164        3.94445        0.58142
H          0.53645        3.16328        1.90903
H          1.99707        4.59214        0.35192
H          2.52672        2.91577        0.52960
H          1.74028        4.15416       -1.86739
H          2.23477        2.59249       -1.62052
H         -0.93953        1.55775        0.72935
H         -0.15519        1.96473       -0.68402
C          0.41667        3.21761        0.82482
C          1.73595        3.55413        0.12154
N         -0.03987        1.89935        0.33399
N          1.60007        3.32199       -1.31210
H          0.67040        1.16427        0.53276
H         -1.65272       -2.33826       -0.94712
H         -0.09031       -1.56277       -1.27428
H         -0.00062       -4.03877       -1.74269
H          1.15132       -3.51874       -0.50769
H         -1.37523       -4.93068       -0.00968
H          0.12583       -5.29724        0.53120
H         -1.28526       -1.08518        0.94127
H         -0.73383       -2.65077        1.34910
C         -0.60272       -2.29663       -0.65042
C          0.08716       -3.65359       -0.71932
N         -0.56731       -1.82468        0.76142
N         -0.49510       -4.53158        0.29987
H          0.35834       -1.40823        0.97837
