36
1sa1msa2dma_76.log	Energy: -1025815.1338081
S          2.55259        0.43316       -0.15647
O          2.53984        1.60083        0.71346
O          2.94183       -0.85676        0.40961
O          1.25290        0.33078       -0.92073
O          3.66485        0.78739       -1.28613
H          3.98853       -0.04544       -1.65440
S         -0.73060       -2.21485        0.18505
O         -1.81533       -3.13557       -0.08763
O         -1.04037       -0.97199        0.90301
O         -0.06831       -1.84417       -1.20206
H          0.51872       -1.02100       -1.11199
C          0.57698       -3.04490        1.05444
H          0.19940       -3.28712        2.04855
H          0.81921       -3.95218        0.50098
H          1.43696       -2.37176        1.10283
N         -0.53854        1.95560        0.49888
C         -0.37642        1.94856        1.96836
C         -0.21099        3.24746       -0.13591
H          0.08333        1.23806        0.08074
H         -1.04280        2.69679        2.40272
H         -0.63524        0.95424        2.33118
H          0.66417        2.17075        2.20615
H         -0.86943        4.02333        0.25937
H          0.83324        3.48489        0.07204
H         -0.35394        3.15121       -1.21270
H         -1.53076        1.65656        0.24855
N         -3.01255        0.92348       -0.24576
C         -2.84022        0.62301       -1.66770
C         -4.31667        1.50206        0.05983
H         -2.87648        0.06180        0.28056
H         -2.87361        1.55487       -2.24203
H         -1.86769        0.14963       -1.82536
H         -3.61664       -0.05098       -2.05532
H         -4.40944        2.47606       -0.43137
H         -5.15087        0.86989       -0.27826
H         -4.41031        1.65288        1.13823
