35
1sa1msa1ma1eda_152.log	Energy: -1035887.5754245
S         -0.09326        1.87109       -0.16365
O          1.25349        2.08770       -0.73530
O         -1.08031        1.44582       -1.18318
O         -0.12345        1.04544        1.04334
O         -0.57348        3.33601        0.34374
H         -0.35336        3.97930       -0.34395
S          2.99066       -0.89151        0.21618
O          4.20273       -1.67798        0.16499
O          1.76582       -1.46681       -0.35569
O          3.29881        0.48489       -0.49164
H          2.48230        1.06085       -0.60238
C          2.63894       -0.42958        1.89701
H          2.44189       -1.35263        2.44399
H          3.52034        0.07200        2.29632
H          1.76139        0.22164        1.89856
N         -0.95839       -1.34820       -0.85857
H         -1.15334       -0.34179       -1.01478
H         -0.02605       -1.39440       -0.41901
C         -0.95258       -2.07322       -2.14436
H         -0.75218       -3.12920       -1.96342
H         -1.92545       -1.95142       -2.62149
H         -0.17211       -1.66066       -2.78269
H         -1.69996       -1.72903       -0.22090
H         -4.94659       -1.39977        1.50107
H         -3.42841       -1.46268        2.40703
H         -3.98311        0.83888        1.59192
H         -2.41410        0.25825        1.06052
H         -4.78112        0.55733       -0.60982
H         -3.22045        0.98885       -0.89015
H         -3.43203       -3.23864        0.85096
H         -3.79877       -2.22914       -0.39014
C         -3.85432       -1.29998        1.41232
C         -3.49050        0.10579        0.93754
N         -3.29364       -2.30039        0.49030
N         -3.81592        0.27437       -0.47991
