38
1sa1msa1dma1eda_16.log	Energy: -1060564.2314214
S          2.67990       -0.77515       -0.24005
O          2.12457       -0.43098        1.06985
O          2.18826       -2.06248       -0.78078
O          2.60993        0.32408       -1.22904
O          4.26179       -0.99856        0.05843
H          4.69014       -1.25169       -0.77047
S         -2.82466        0.14961       -0.03264
O         -2.72366        1.46290        0.61952
O         -3.15189       -0.99762        0.82922
O         -1.56794       -0.14497       -0.84036
C         -4.12240        0.27256       -1.25376
H         -4.19448       -0.67868       -1.78123
H         -5.05255        0.48937       -0.72763
H         -3.87540        1.07980       -1.94336
N         -0.38344       -2.39884        0.21860
C         -1.18981       -3.49381       -0.35820
C         -0.36960       -2.37732        1.70038
H          0.59225       -2.42547       -0.14369
H         -2.22139       -3.36883       -0.02593
H         -1.13802       -3.42915       -1.44523
H         -0.79073       -4.45270       -0.02372
H         -1.38528       -2.18742        2.04838
H         -0.00104       -3.33792        2.06495
H          0.30694       -1.58352        2.01576
H         -0.78729       -1.50034       -0.13323
H         -0.60630        2.43266        1.10094
H          0.88181        1.47625        1.33607
H          1.28619        3.91117        1.83527
H          2.27024        3.33123        0.48721
H         -0.15830        4.95517        0.23130
H          1.33473        5.25568       -0.37038
H         -0.43521        1.12012       -0.78267
H          0.16562        2.64793       -1.23447
C          0.41855        2.27495        0.75552
C          1.24417        3.55329        0.79847
N          0.33455        1.81790       -0.65694
N          0.67711        4.51896       -0.14581
H          1.22286        1.36189       -0.95500
