30
1sa1msa2ma_83.log	Energy: -976491.1343191
S          0.50066       -0.65459       -0.17796
O          1.87807       -1.09789       -0.39925
O         -0.46372       -1.71975        0.14781
O          0.41948        0.47710        0.79813
O          0.07390       -0.03642       -1.59608
H          1.84010        1.31135        0.75886
H         -0.87874        0.21885       -1.54544
S         -3.36911        0.16402        0.00438
O         -4.80368        0.28154       -0.12156
O         -2.52551        0.58984       -1.12028
O         -3.04342       -1.34318        0.35442
H         -2.05972       -1.52700        0.26522
C         -2.81869        1.04615        1.44842
H         -3.04369        2.10027        1.28113
H         -3.37113        0.66426        2.30678
H         -1.74220        0.89066        1.55443
N          4.34458       -0.55873        0.98827
H          4.75784       -0.80388        1.88231
C          5.30513       -0.76745       -0.10320
H          5.73754       -1.77409       -0.11496
H          4.79051       -0.61249       -1.05426
H          6.11816       -0.04019       -0.02596
H          3.53222       -1.15936        0.83849
N          2.80890        1.69061        0.57166
H          2.97794        2.50008        1.16373
C          2.93369        2.01933       -0.86851
H          3.94455        2.37029       -1.07868
H          2.72323        1.11006       -1.43174
H          2.20481        2.78338       -1.13770
H          3.48763        0.89576        0.82977
