38
1sa1msa1dma1eda_121.log	Energy: -1060552.9456447
S          0.38600       -1.50111       -0.70141
O          0.51885       -0.58246       -1.83794
O          0.15011       -0.73443        0.58396
O         -0.66010       -2.53783       -0.83918
O          1.73428       -2.27262       -0.51569
H          2.54647       -1.60574       -0.62068
S         -1.40132        2.23484       -0.08477
O         -1.71203        3.56596        0.39007
O         -2.44110        1.19727        0.04950
O         -0.09598        1.74575        0.63623
H          0.02299        0.71430        0.57595
C         -0.93684        2.29752       -1.79881
H         -1.82653        2.57740       -2.36425
H         -0.16135        3.05686       -1.90242
H         -0.56505        1.31052       -2.08677
N         -2.68420       -1.48984        0.62347
C         -4.04230       -1.80407        0.13933
C         -2.45262       -1.78426        2.05359
H         -1.96355       -1.99941        0.05007
H         -4.77042       -1.21115        0.69479
H         -4.10086       -1.55788       -0.92068
H         -4.23825       -2.86781        0.28187
H         -3.12327       -1.17491        2.66151
H         -2.63818       -2.84402        2.23484
H         -1.41262       -1.54386        2.27262
H         -2.48979       -0.48332        0.45294
H          3.96894        1.52290       -0.60773
H          2.28630        0.97593       -0.75640
H          2.73745        1.67468        1.55669
H          2.40952       -0.05690        1.48740
H          5.04448        1.16673        1.85326
H          4.32816       -0.00803        2.73491
H          3.93703       -0.55672       -1.76476
H          4.50688       -0.85623       -0.24357
C          3.25516        0.74257       -0.30768
C          3.13684        0.71196        1.21088
N          3.68426       -0.58452       -0.78177
N          4.43326        0.35889        1.79683
