36
1sa1msa1ma1tma_11.log	Energy: -1025827.3590668
S          1.45846       -1.57649       -0.57103
O          1.83472       -0.31884       -1.26522
O          0.08389       -2.06744       -1.23893
O          2.37578       -2.68644       -0.71274
O          1.10113       -1.24973        0.85633
H         -0.37551       -1.64217        1.37327
S         -2.07651        0.97505       -0.32726
O         -1.01393        1.96309       -0.57807
O         -2.30503        0.72743        1.13281
O         -1.90539       -0.30709       -1.06348
H         -0.55562       -1.31117       -1.28808
C         -3.59484        1.67847       -0.94505
H         -3.46741        1.85889       -2.01258
H         -4.40054        0.96621       -0.76767
H         -3.77839        2.61287       -0.41437
N         -1.36356       -1.73481        1.74810
H         -1.30073       -1.90770        2.74853
C         -2.11881       -2.80369        1.05381
H         -3.09053       -2.93050        1.53228
H         -2.25133       -2.49532        0.01860
H         -1.55129       -3.73306        1.09065
H         -1.80666       -0.79170        1.58875
N          2.01026        1.74488        0.40729
C          1.93046        2.97815       -0.41279
H          2.47703        2.80979       -1.34125
H          0.88101        3.16860       -0.63344
H          2.37433        3.80749        0.14325
C          1.19488        1.83786        1.64349
H          0.16663        2.06106        1.36172
H          1.23957        0.87066        2.14262
H          1.60998        2.62491        2.27855
C          3.41247        1.36536        0.70834
H          3.40199        0.42165        1.25420
H          3.94495        1.22595       -0.23197
H          3.87789        2.15273        1.30577
H          1.65237        0.95865       -0.19615
