30
1sa1msa1a1dma_66.log	Energy: -976497.2501331
S         -0.56790       -1.20501       -0.23804
O         -0.45581        0.21263       -0.77351
O         -1.90226       -1.74683       -0.47722
O          0.41974       -2.07081       -1.13162
O         -0.10353       -1.25048        1.15641
H          1.31824       -1.66260       -1.08697
H         -1.96532       -0.67152        2.21817
S          2.96372        0.53514       -0.03873
O          4.15915        1.31615       -0.26050
O          2.72959       -0.65305       -0.86885
O          1.71934        1.50667       -0.18118
H          0.88231        0.99697       -0.42477
C          2.88848        0.03004        1.66454
H          3.72577       -0.64863        1.83206
H          2.98414        0.92151        2.28429
H          1.93369       -0.47614        1.82263
N         -2.96591       -0.52409        2.07208
H         -3.04337        0.58015        0.71872
H         -3.40634       -0.38980        2.97613
H         -3.29991       -1.40216        1.68139
N         -2.95898        1.13916       -0.18415
C         -3.06436        2.58130        0.10350
C         -3.94553        0.62758       -1.15888
H         -1.99624        0.90917       -0.52396
H         -4.04797        2.79695        0.52460
H         -2.29007        2.85572        0.82049
H         -2.92524        3.14921       -0.81773
H         -4.95225        0.77327       -0.76244
H         -3.83658        1.16507       -2.10229
H         -3.74112       -0.43257       -1.31075
