38
1sa1msa1dma1eda_231.log	Energy: -1060546.1378008
S          0.79116        2.26582       -0.16842
O         -0.60327        2.49462       -0.66060
O          1.07297        2.74962        1.16912
O          1.21184        0.87207       -0.42336
O          1.70051        3.20679       -1.13187
H          1.40244        3.08340       -2.04310
S         -2.36571       -0.39102        0.05496
O         -1.51426       -0.04743        1.20189
O         -2.38391       -1.77838       -0.37726
O         -2.00838        0.51523       -1.16387
H         -1.40780        1.34217       -0.91817
C         -4.02362        0.11255        0.45327
H         -4.35830       -0.49195        1.29671
H         -4.00549        1.17068        0.71480
H         -4.64865       -0.06502       -0.42178
N          1.06067       -0.99829        1.72815
C          1.81768       -0.12770        2.65264
C          0.52809       -2.22579        2.34823
H          0.26852       -0.46558        1.33406
H          2.69764       -0.66737        3.00835
H          2.10437        0.77817        2.11897
H          1.17989        0.14354        3.49535
H          1.35808       -2.84257        2.69822
H         -0.11903       -1.95811        3.18455
H         -0.05534       -2.77048        1.60503
H          1.68845       -1.25824        0.90647
H          2.75061       -2.74518       -2.27851
H          2.38578       -3.67573       -0.80829
H          0.39975       -3.43485       -2.17492
H          0.16879       -2.59384       -0.64708
H         -0.50508       -1.37264       -2.69909
H          0.55421       -0.52883       -1.81224
H          3.70229       -1.77545       -0.25833
H          2.62176       -0.74162       -0.90775
C          2.21519       -2.72222       -1.32059
C          0.72639       -2.56302       -1.59859
N          2.71235       -1.64596       -0.44401
N          0.45891       -1.36579       -2.38415
