30
1sa1msa2ma_18.log	Energy: -976505.9623428
S         -2.79225        0.25940       -0.09800
O         -4.14218       -0.04388       -0.52809
O         -1.69463       -0.10569       -1.02700
O         -2.59134        1.60791        0.47425
O         -2.45994       -0.78984        1.14963
H         -3.18053       -0.72807        1.79026
S          2.63577       -0.16310       -0.10022
O          2.65225        0.99185       -1.01303
O          2.50369       -1.48648       -0.76366
O          1.58519       -0.00052        0.96875
C          4.20233       -0.19369        0.75027
H          4.98311       -0.33748        0.00297
H          4.33250        0.75981        1.26226
H          4.19428       -1.01802        1.46313
N          0.07052        2.06256       -0.07742
H          0.57882        1.31425        0.44649
H          0.11334        1.76404       -1.05259
C          0.72198        3.37422        0.11638
H          0.19412        4.13236       -0.46189
H          0.68357        3.62935        1.17512
H          1.75691        3.29196       -0.21459
H         -0.93467        2.04291        0.20250
N         -0.07337       -2.07910       -0.05420
H          0.86906       -2.07619       -0.50048
H          0.08734       -1.64765        0.86013
C         -0.70815       -3.40770        0.03730
H         -1.68178       -3.29424        0.51296
H         -0.83523       -3.80887       -0.96768
H         -0.07468       -4.07506        0.62149
H         -0.68378       -1.39791       -0.55763
