38
1sa1msa1dma1eda_319.log	Energy: -1060542.0209747
S          2.03895       -1.39594       -0.67705
O          2.59157       -0.29836        0.13937
O          2.90380       -2.53505       -0.92050
O          0.67366       -1.75521       -0.18003
O          1.77289       -0.70738       -2.13396
H          2.06784       -1.33654       -2.80547
S         -2.55027       -0.58147       -0.04805
O         -3.24422        0.56496       -0.60350
O         -1.83272       -0.40817        1.22290
O         -1.57407       -1.15998       -1.12787
H         -0.64116       -1.39755       -0.76256
C         -3.72137       -1.90051        0.16743
H         -4.45854       -1.56473        0.89723
H         -4.19218       -2.09096       -0.79688
H         -3.18940       -2.78174        0.52549
N          0.75584        0.21486        2.10620
C          0.90734       -0.96367        2.98849
C          0.87544        1.52342        2.78929
H          1.46848        0.13989        1.34472
H          0.13914       -0.93062        3.76213
H          0.79128       -1.85918        2.37835
H          1.89975       -0.94282        3.44028
H          0.06381        1.62123        3.51234
H          1.83706        1.55887        3.30449
H          0.83117        2.31799        2.03412
H         -0.16583        0.13435        1.64622
H          1.44227        3.27743       -1.86847
H          2.01637        2.01170       -0.76974
H          0.03729        1.22776       -1.94492
H         -0.31555        1.40974       -0.22700
H         -1.19020        3.24484       -2.31491
H         -2.09007        2.41358       -1.23121
H          1.85295        4.25900        0.27558
H          0.22283        4.15312        0.10408
C          1.20735        2.72864       -0.94098
C         -0.09496        1.96703       -1.14449
N          1.07567        3.60955        0.22256
N         -1.20523        2.89520       -1.36191
