32
1sa1msa1a1eda_129.log	Energy: -1011233.2698341
S         -2.99320       -0.51025       -0.14462
O         -2.80711        0.34484       -1.32932
O         -2.82747       -1.95056       -0.33102
O         -2.20016       -0.00110        1.01518
O         -4.55206       -0.26229        0.23433
H         -4.84745       -1.00159        0.78231
S          2.76950       -0.64630       -0.18687
O          3.29620        0.66503       -0.58498
O          1.58657       -1.07810       -1.00117
O          2.45396       -0.74745        1.27164
C          4.05318       -1.84452       -0.50675
H          3.69135       -2.83304       -0.22313
H          4.28385       -1.81137       -1.57181
H          4.92665       -1.56832        0.08438
N         -0.10185       -1.79264        0.97607
H          0.69014       -1.66944        1.61852
H         -0.84315       -1.07871        1.14309
H          0.33721       -1.62404        0.03706
H         -0.52414       -2.71587        1.01973
H          0.71623        1.22913       -1.11899
H          0.45881        2.85988       -1.77473
H          2.30051        2.75599       -0.03593
H          0.98541        3.85477        0.44797
H          1.52953        1.18758        1.50953
H          1.15887        2.56321        2.31253
H         -1.63048        1.54459       -0.96150
H         -0.98262        1.78484        0.55136
C          0.40537        2.24775       -0.87314
C          1.25110        2.80524        0.26953
N         -1.00788        2.17790       -0.40792
N          0.95450        2.03124        1.47538
H         -1.44203        3.09786       -0.35646
