35
1sa1msa1ma1eda_150.log	Energy: -1035887.0735299
S          1.73809       -1.68527       -0.14794
O          0.79522       -1.23100       -1.17459
O          2.70845       -0.64877        0.27348
O          1.10544       -2.37087        0.99552
O          2.62288       -2.80521       -0.91486
H          3.32433       -3.09822       -0.31695
S          0.89712        2.38183        0.13747
O          0.85314        3.81062        0.35162
O         -0.19335        1.56766        0.69161
O          2.27675        1.86681        0.70038
H          2.40016        0.87401        0.57452
C          0.99108        2.02596       -1.60298
H          0.07529        2.41060       -2.05427
H          1.86241        2.54282       -2.00492
H          1.06491        0.94296       -1.73191
N         -1.22036       -0.92375        1.45967
H         -0.84755        0.01136        1.22714
H         -1.79110       -1.22158        0.63063
C         -1.99062       -0.89220        2.71651
H         -2.37782       -1.88960        2.92712
H         -1.33937       -0.57352        3.53034
H         -2.81426       -0.18978        2.59292
H         -0.40097       -1.55946        1.48997
H         -4.59534       -0.24532       -1.80610
H         -4.04634        1.35620       -1.30831
H         -2.32231        0.13775       -2.59916
H         -1.77638        0.58423       -0.97398
H         -2.73321       -2.10283       -1.68087
H         -1.17643       -1.65300       -1.39803
H         -4.98479        0.47101        0.59093
H         -4.29117       -0.99270        0.41137
C         -3.89560        0.28597       -1.13945
C         -2.46406       -0.06345       -1.52755
N         -4.14210        0.00235        0.27722
N         -2.14990       -1.45022       -1.16510
