27
1sa1msa1a1ma_45.log	Energy: -951833.7007571
S          2.19150       -0.92117       -0.04049
O          2.39995       -0.42131        1.32622
O          2.32075       -2.34934       -0.26590
O          0.94123       -0.33101       -0.63129
O          3.38908       -0.20017       -0.87826
H          3.59023       -0.76405       -1.63704
S         -2.32221       -0.46353       -0.05244
O         -2.47095        0.82579       -0.72045
O         -1.97189       -0.41793        1.37367
O         -1.32910       -1.39239       -0.82861
H         -0.36067       -1.03975       -0.76839
C         -3.81192       -1.40643       -0.23769
H         -4.60438       -0.84749        0.26050
H         -4.01895       -1.51019       -1.30236
H         -3.66335       -2.37752        0.23328
N          0.28958        1.20748        2.00251
H          1.13374        0.60508        1.88327
H          0.23203        1.86110        1.13891
H         -0.54654        0.60375        1.97425
H          0.33041        1.72354        2.87569
N          0.09390        2.52344       -0.38723
H          0.68660        1.87144       -0.89947
C          0.42770        3.91483       -0.69877
H          0.30082        4.16392       -1.75912
H         -0.20803        4.58254       -0.11140
H          1.46725        4.10975       -0.42352
H         -0.85948        2.29701       -0.66898
