35
1sa1msa1ma1eda_196.log	Energy: -1035886.0274653
S          0.14766        1.17355       -0.36095
O          1.45202        1.82086       -0.40814
O         -1.01056        2.07883       -0.24472
O         -0.06418        0.15120       -1.42691
O          0.19691        0.31755        1.02058
H          1.03712       -1.08496       -1.32303
H         -0.68288       -0.11751        1.13744
S         -3.43507       -0.32801        0.31704
O         -4.72406       -0.76051        0.80444
O         -2.22688       -0.85681        0.97089
O         -3.40525        1.24926        0.37334
H         -2.48851        1.60533        0.15443
C         -3.29449       -0.67724       -1.42167
H         -3.35466       -1.76040       -1.53591
H         -4.12792       -0.19111       -1.92866
H         -2.32910       -0.30081       -1.76893
N          1.79959       -1.78873       -1.13901
H          2.02016       -2.25280       -2.01759
C          1.37902       -2.75797       -0.10478
H          2.23127       -3.36688        0.19404
H          1.01777       -2.19769        0.75358
H          0.57776       -3.38452       -0.49869
H          2.65112       -1.19838       -0.88308
H          3.49230        1.38458        1.29094
H          4.74855        0.51496        2.16892
H          5.50988        1.02022       -0.07200
H          5.34161       -0.73669        0.11217
H          3.20718        0.91429       -1.06035
H          4.35044        0.14636       -1.95623
H          3.27595       -1.14677        2.46522
H          2.11843       -0.27844        1.69757
C          4.01928        0.42593        1.35522
C          4.78279        0.20480        0.05342
N          3.05893       -0.65235        1.60892
N          3.84697        0.11631       -1.07509
