27
1sa1msa1a1ma_172.log	Energy: -951821.0703218
S          1.17169       -1.42305        0.08895
O          0.48394       -2.70372        0.01680
O          2.62966       -1.41531        0.16458
O          0.91858       -0.65601       -1.35157
O          0.52497       -0.49797        1.08230
H         -0.03911       -0.56971       -1.49180
H          0.62975        1.05036        0.62441
S         -2.70716        0.38597       -0.14189
O         -1.66732        0.54571       -1.15092
O         -4.09513        0.63024       -0.48175
O         -2.30421        1.44737        1.02841
H         -3.12036        1.82243        1.38984
C         -2.51430       -1.17566        0.67022
H         -2.61631       -1.94714       -0.09466
H         -1.51176       -1.20210        1.10625
H         -3.30116       -1.26229        1.41954
N          0.78439        1.94441        0.07377
H          0.11196        1.92289       -0.69298
H          1.80596        1.87101       -0.28985
H          0.62775        2.76561        0.64929
N          3.36914        1.38197       -0.60794
H          3.23120        0.36989       -0.67992
C          4.26526        1.64853        0.52455
H          5.25439        1.19233        0.40750
H          4.39118        2.72700        0.65706
H          3.81311        1.23519        1.42933
H          3.78656        1.69351       -1.47931
