32
1sa1msa1a1eda_189.log	Energy: -1011230.0028880
S         -0.88761       -1.72112       -0.04721
O         -0.51948       -0.88252       -1.23550
O         -0.72149       -0.89398        1.18273
O         -2.18484       -2.36815       -0.17018
O          0.17656       -2.90191        0.02926
H          1.07878       -2.51521       -0.04895
S          2.63275       -0.01688       -0.02656
O          3.85555        0.66205       -0.39238
O          2.52719       -1.46563       -0.21978
O          1.43763        0.68139       -0.80341
H          0.67682        0.01981       -1.01264
C          2.25430        0.32921        1.67749
H          3.02587       -0.15579        2.27700
H          2.28734        1.40944        1.82311
H          1.26754       -0.08769        1.89151
N         -4.35016       -0.27111       -0.03880
H         -3.79299       -1.13038       -0.08946
H         -4.91553       -0.22993       -0.88123
H         -4.98748       -0.36937        0.74539
H         -2.69250        3.30707        0.23061
H         -2.07102        2.65528        1.76399
H         -0.41474        4.23265        0.66824
H          0.22476        2.59683        0.83664
H         -0.43831        3.91935       -1.63224
H          0.57608        2.64316       -1.34526
H         -3.02384        0.91282        0.09886
H         -1.65746        1.33196       -0.81553
C         -1.91641        2.68460        0.68339
C         -0.52240        3.20154        0.31245
N         -2.04642        1.31892        0.13842
N         -0.32439        3.05274       -1.12340
H         -1.48078        0.62191        0.67085
