38
1sa1msa1dma1eda_293.log	Energy: -1060542.6073760
S         -1.38350        0.70154        0.04093
O          0.01269        0.29795       -0.31388
O         -1.86742        0.16014        1.31089
O         -1.46073        2.18896       -0.05103
O         -2.29444        0.12009       -1.10771
H         -0.07546        2.77739       -0.46282
H         -3.14181       -0.33582       -0.67956
S          2.56040       -1.82265        0.06099
O          2.77057       -1.27116        1.39306
O          3.21760       -1.13179       -1.05062
O          1.02868       -2.00508       -0.24074
H          0.54750       -1.09387       -0.26571
C          3.05137       -3.53008        0.04047
H          4.12470       -3.55077        0.23147
H          2.50909       -4.05264        0.82794
H          2.82501       -3.94594       -0.94069
N         -4.29683       -0.94922        0.11883
C         -4.83144       -2.20847       -0.39148
C         -5.31866        0.07066        0.35245
H         -3.77875       -1.10297        0.98241
H         -5.28211       -2.03724       -1.37335
H         -4.01835       -2.92823       -0.50827
H         -5.59621       -2.63777        0.27106
H         -5.78594        0.33648       -0.60009
H         -6.10118       -0.27228        1.04343
H         -4.84186        0.96165        0.76648
H          2.29726        4.23957        0.55219
H          1.00655        3.41194        1.46211
H          3.27674        2.17316        1.45759
H          1.91160        1.21694        0.88101
H          4.05528        2.29642       -0.74509
H          3.22468        0.88418       -0.89130
H          0.66899        4.17875       -1.04331
H          1.45138        2.71016       -1.29278
C          1.67640        3.34079        0.60374
C          2.54427        2.07533        0.64904
N          0.86116        3.26596       -0.64020
N          3.13643        1.87562       -0.67129
