33
1sa1msa1ma1dma_58.log	Energy: -1001155.4196319
S         -1.27450       -1.58493       -0.07408
O         -0.33782       -1.71500        1.06986
O         -2.56714       -1.01555        0.33054
O         -0.67123       -0.96258       -1.25975
O         -1.56432       -3.10172       -0.57758
H         -1.97159       -3.59023        0.15071
S          2.51873        0.09800       -0.00237
O          3.85165        0.57424        0.29868
O          1.43487        1.07595       -0.13426
O          2.13678       -0.95165        1.11514
H          1.17000       -1.23544        1.06354
C          2.55410       -0.88155       -1.48728
H          2.85332       -0.21819       -2.29998
H          3.29040       -1.67323       -1.34927
H          1.55063       -1.27748       -1.65665
N         -1.88892        1.53555        1.77558
H         -2.59962        2.11909        2.20561
C         -0.69374        1.45964        2.63042
H         -0.90163        1.04589        3.62325
H          0.04877        0.82803        2.14159
H         -0.26263        2.45721        2.74540
H         -2.29449        0.60566        1.65355
N         -1.19037        1.84686       -0.87341
C         -2.42665        1.63519       -1.65503
C         -0.49229        3.11431       -1.16287
H         -1.44621        1.80938        0.17195
H         -2.18376        1.57631       -2.71704
H         -2.88115        0.70074       -1.32580
H         -3.10631        2.47051       -1.47450
H         -0.24903        3.16476       -2.22580
H         -1.14735        3.94655       -0.89771
H          0.42456        3.14430       -0.57632
H         -0.55727        1.04514       -1.01712
