33
1sa1msa1ma1dma_155.log	Energy: -1001150.8244178
S          1.24667        0.69216        0.40722
O          1.32629       -0.66902       -0.19838
O          0.39670        0.77568        1.59518
O          2.71856        1.02741        0.86086
O          0.87014        1.70730       -0.62599
H          3.38049        0.61220        0.18441
H         -0.51695        2.32505       -0.37760
S         -1.98417       -1.76075       -0.13323
O         -2.98732       -2.73871       -0.50016
O         -2.25787       -0.34288       -0.38451
O         -0.64558       -2.17176       -0.86084
H          0.10418       -1.52555       -0.64562
C         -1.58202       -1.92547        1.59346
H         -2.49448       -1.71260        2.15238
H         -1.25736       -2.95101        1.76859
H         -0.80014       -1.20142        1.83717
N          4.23916       -0.23694       -0.86302
H          3.58385       -0.35411       -1.63159
C          4.52563       -1.53988       -0.24628
H          4.96126       -2.26270       -0.94551
H          5.21506       -1.39600        0.58861
H          3.58931       -1.94193        0.14513
H          5.08090        0.18974       -1.23618
N         -1.44869        2.85807       -0.30125
C         -2.13412        2.50252        0.96769
C         -2.24521        2.57657       -1.52112
H         -1.18935        3.84344       -0.28118
H         -2.36677        1.43925        0.92541
H         -1.44838        2.68711        1.79343
H         -3.04378        3.09892        1.06409
H         -2.44149        1.50464       -1.54964
H         -3.18167        3.13646       -1.48412
H         -1.66097        2.87151       -2.39315
