26
1sa1msa1dma_52.log	Energy: -940989.8471295
S         -1.99678       -0.99079       -0.10182
O         -2.43615        0.19075       -0.90021
O         -1.49174       -2.09313       -0.91632
O         -1.15055       -0.58047        1.03025
O         -3.34704       -1.54431        0.62733
H         -3.83258       -2.07226       -0.02023
S          2.51174       -0.27428        0.11294
O          1.69609        0.82677       -0.38546
O          3.22948       -0.12221        1.36588
O          3.61512       -0.55404       -1.04386
H          4.48508       -0.59720       -0.62140
C          1.57258       -1.77087        0.09614
H          0.76720       -1.64125        0.82406
H          1.13355       -1.90437       -0.89321
H          2.24248       -2.58799        0.36268
N         -0.78976        2.11242       -0.05872
C         -0.57820        3.18027       -1.05502
C         -1.22950        2.57950        1.27329
H         -1.49823        1.41378       -0.42561
H          0.17745        3.87815       -0.69097
H         -0.23974        2.72440       -1.98511
H         -1.52102        3.70302       -1.22171
H         -0.47749        3.25128        1.69088
H         -2.18100        3.10241        1.16672
H         -1.35589        1.70002        1.90439
H          0.07817        1.56379        0.03523
