38
1sa1msa1dma1eda_219.log	Energy: -1060546.6721565
S         -2.87729       -0.53915       -0.19614
O         -2.57628        0.94247       -0.56208
O         -2.18157       -1.43121       -1.11066
O         -2.78347       -0.78377        1.22269
O         -4.44659       -0.58264       -0.52811
H         -4.56939       -0.49846       -1.48438
S          0.72775        2.05889        0.09908
O          2.13478        1.95951       -0.31066
O          0.44632        1.53337        1.45687
O         -0.17831        1.43117       -0.93470
H         -1.54941        1.13755       -0.68403
C          0.28756        3.78484        0.12963
H          0.92646        4.28008        0.86100
H          0.45170        4.19397       -0.86727
H         -0.76130        3.86611        0.41642
N          1.23693       -1.10844        1.72156
C          0.12835       -1.76699        2.44327
C          2.58182       -1.47616        2.20612
H          1.14498       -1.31399        0.66506
H          0.20987       -1.55070        3.51031
H         -0.82200       -1.38984        2.06363
H          0.19076       -2.84522        2.28233
H          2.73431       -1.06832        3.20738
H          2.66066       -2.56496        2.23853
H          3.31763       -1.09015        1.49926
H          1.09165       -0.08025        1.76717
H          2.69106       -0.43675       -2.74611
H          3.81939       -1.78061       -2.56422
H          1.52347       -2.56608       -2.68887
H          2.27169       -2.99677       -1.14009
H          0.63603       -0.55944       -1.35380
H         -0.05690       -1.98558       -1.06794
H          4.58689       -0.36511       -0.99503
H          3.13614        0.24577       -0.60125
C          3.04673       -1.20635       -2.04229
C          1.89545       -2.15841       -1.73842
N          3.62049       -0.62325       -0.82900
N          0.82839       -1.49115       -0.98139
