40
1sa1msa2eda_121.log	Energy: -1095294.2969422
S          0.95796       -2.16848       -0.41030
O          0.93838       -1.38450       -1.82053
O         -0.00480       -3.27220       -0.49779
O          2.37999       -2.51598       -0.27366
O          0.54130       -1.14851        0.60433
H          2.94786       -0.74626       -0.34704
H         -1.19227       -1.11966        0.61174
S         -0.66349        1.61548       -1.00711
O          0.81793        1.77035       -0.99740
O         -1.28524        1.79870        0.31852
O         -1.09358        0.34464       -1.67126
H          0.15456       -0.77683       -1.85969
C         -1.26714        2.92377       -2.05851
H         -0.79725        2.81909       -3.03635
H         -2.34952        2.81969       -2.13982
H         -1.00329        3.87696       -1.59987
H          3.82864        2.47202        1.23730
H          3.55606        1.86959        2.85844
H          4.22551       -0.02735        1.54719
H          2.48484       -0.22544        1.85242
H          2.03951        0.67256       -0.36478
H          3.67286        0.73618       -0.66054
H          1.44235        2.52556        0.90929
H          1.18504        1.94237        2.40748
C          3.15306        1.85000        1.83976
C          3.23510        0.39781        1.36174
N          1.84296        2.46726        1.84145
N          2.96611        0.26424       -0.09878
H         -2.58224        0.18146        2.41111
H         -4.23223       -0.37967        2.69044
H         -2.65997       -2.27408        2.14463
H         -3.99035       -2.12092        0.96634
H         -1.86718       -2.36160       -0.17115
H         -2.44979       -0.80560       -0.42093
H         -4.81872        1.03942        1.03808
H         -3.24100        1.30732        0.60941
C         -3.46388       -0.25106        1.92176
C         -3.10504       -1.63311        1.38016
N         -3.93411        0.59652        0.83238
N         -2.12202       -1.47678        0.28605
