32
1sa1msa1a1eda_312.log	Energy: -1011217.5046187
S          1.37199       -1.35748       -0.57761
O          0.42436       -0.25908       -0.87430
O          0.93286       -2.67126       -1.03270
O          2.76862       -0.98765       -0.96312
O          1.49741       -1.39980        1.03380
H          3.26097        0.05135        0.05718
H          0.65352       -1.83571        1.40080
S         -2.82469        0.55882        0.00800
O         -2.93976       -0.63721        0.83724
O         -1.98081        1.65790        0.42420
O         -4.34014        1.14213       -0.13268
H         -4.91789        0.59656        0.41958
C         -2.47353        0.12154       -1.67051
H         -1.43951       -0.24236       -1.67262
H         -3.18216       -0.64736       -1.97671
H         -2.57543        1.02256       -2.27557
N         -0.76850       -2.64515        1.65701
H         -0.94537       -3.11605        2.53704
H         -0.72454       -3.34163        0.91724
H         -1.54970       -2.02257        1.45571
H          3.78546        2.90625        0.84708
H          4.14496        2.13100       -0.72048
H          1.95796        3.47610       -0.71454
H          1.75511        1.77010       -1.15063
H          0.71145        3.04642        1.17253
H          0.34085        1.59113        0.50477
H          4.25289        0.63511        1.33445
H          2.58314        0.83608        1.38502
C          3.44726        2.16408        0.11863
C          2.00861        2.45052       -0.33275
N          3.42507        0.83749        0.78142
N          1.10588        2.19976        0.78462
