30
1sa1msa2ma_80.log	Energy: -976491.7455510
S         -1.50329        0.40898        0.43831
O         -0.14033        0.48873        1.06147
O         -2.61125        0.46933        1.38426
O         -1.58242        1.43179       -0.64495
O         -1.51871       -1.01241       -0.25469
H         -0.12128        2.00237       -0.92788
H         -2.48154       -1.39156       -0.22447
S          2.66389       -0.88757       -0.18415
O          2.82523        0.57368       -0.33138
O          2.30091       -1.62361       -1.38026
O          1.70371       -1.18646        1.01224
H          0.87877       -0.55251        1.02878
C          4.17948       -1.53839        0.47367
H          4.42784       -0.99581        1.38491
H          4.02836       -2.59886        0.67468
H          4.94469       -1.39772       -0.29013
N         -4.01678       -1.75764       -0.04816
H         -4.27053       -2.73521       -0.14564
C         -4.82642       -0.90187       -0.92569
H         -5.90394       -1.00183       -0.75207
H         -4.53690        0.13726       -0.75633
H         -4.61123       -1.14914       -1.96766
H         -4.15278       -1.48967        0.92366
N          0.85776        2.42356       -0.93538
H          1.54340        1.65337       -0.79880
C          0.97445        3.38999        0.18138
H          1.97758        3.81601        0.19814
H          0.22719        4.17359        0.05778
H          0.78138        2.84079        1.10216
H          1.03069        2.85812       -1.83869
