41
1sa1msa1tma1eda_63.log	Energy: -1085216.1285740
S         -3.10101        0.85701       -0.24854
O         -3.23236        1.35588       -1.61065
O         -3.59374       -0.52986       -0.04908
O         -1.77085        1.04336        0.37264
O         -4.04604        1.79538        0.69125
H         -4.89255        1.90446        0.23748
S          2.68318       -1.15859       -0.13634
O          2.12675       -2.51875       -0.00021
O          2.78573       -0.40296        1.12997
O          1.97205       -0.35423       -1.19099
C          4.34583       -1.36260       -0.76136
H          4.28919       -1.88100       -1.71863
H          4.79595       -0.37706       -0.88484
H          4.90817       -1.95305       -0.03748
H          0.51606        3.00469        1.37153
H          1.30610        1.41200        1.57561
H          2.98465        3.26090        1.71155
H          3.28005        2.15049        0.37399
H          2.17485        4.85827        0.14269
H          3.39295        4.17231       -0.70615
H         -0.30554        1.64891       -0.30991
H          0.87098        2.64118       -1.03943
C          1.22945        2.29601        0.94184
C          2.60073        2.92557        0.73981
N          0.70568        1.87385       -0.38071
N          2.50118        3.98798       -0.26359
H          1.22128        1.01415       -0.72259
N         -1.50662       -2.21265        0.30068
C         -1.98288       -3.60039        0.49527
H         -2.51087       -3.66569        1.44714
H         -2.66227       -3.85946       -0.31739
H         -1.12335       -4.27353        0.49673
C         -0.84387       -2.04875       -1.02306
H         -1.56194       -2.31713       -1.79853
H         -0.54560       -1.00816       -1.13657
H          0.05300       -2.66845       -1.05469
C         -0.63158       -1.76859        1.42053
H         -0.42755       -0.70840        1.28199
H         -1.17073       -1.91341        2.35764
H          0.29937       -2.33678        1.39525
H         -2.34691       -1.58214        0.27664
