36
1sa1msa1ma1tma_69.log	Energy: -1025810.8110836
S          0.66612       -1.80656        0.46384
O          2.04246       -1.70340        0.93220
O          0.35956       -0.62816       -0.46805
O          0.19223       -3.05743       -0.09068
O         -0.20935       -1.44883        1.78047
H         -1.13642       -1.27679        1.50991
S         -2.69277        0.35297       -0.42160
O         -2.29385        1.75368       -0.30102
O         -2.64908       -0.44749        0.80731
O         -1.87675       -0.35935       -1.55532
H         -0.92756       -0.56267       -1.19083
C         -4.32405        0.25575       -1.10870
H         -4.99796        0.72822       -0.39363
H         -4.32840        0.78973       -2.05854
H         -4.57284       -0.79622       -1.24390
N          3.03733        0.21036       -1.49532
H          3.10807       -0.53866       -0.80842
C          4.20462        0.21256       -2.37589
H          4.37790       -0.73797       -2.89954
H          4.09458        0.99901       -3.12854
H          5.10133        0.44284       -1.79265
H          2.19361       -0.00640       -2.01717
N          1.20443        1.63736        0.86294
C          1.12807        2.73400       -0.13459
H          1.86232        2.52078       -0.91278
H          0.11896        2.74944       -0.54951
H          1.34752        3.68216        0.36152
C          0.17847        1.78277        1.92923
H         -0.80322        1.85928        1.46156
H          0.21807        0.90030        2.56762
H          0.39906        2.68651        2.50186
C          2.56777        1.49577        1.43643
H          2.59429        0.58574        2.03638
H          3.26902        1.40537        0.60761
H          2.78243        2.37644        2.04634
H          0.98224        0.75920        0.33539
