38
1sa1msa1dma1eda_90.log	Energy: -1060563.1746578
S         -0.49127        1.74910       -0.84847
O          0.65553        2.67447       -0.93849
O         -0.33878        0.68026       -2.05344
O         -0.42268        0.94729        0.40145
O         -1.83085        2.29450       -1.08902
H          1.85971        0.29461        0.90040
H         -2.55403        0.41367       -0.70388
S          1.04678       -1.91748       -0.18772
O         -0.41692       -2.16786       -0.26082
O          1.52063       -1.43672        1.13235
O          1.53816       -1.04321       -1.29490
H          0.42577        0.07330       -1.86515
C          1.80994       -3.50883       -0.44361
H          1.47788       -4.17531        0.35261
H          1.49794       -3.88481       -1.41804
H          2.89129       -3.37568       -0.40857
N          2.33099        1.22263        0.83452
C          3.71390        1.01178        0.36530
C          2.20250        1.89597        2.14274
H          1.79871        1.77602        0.13168
H          4.25360        0.41338        1.10067
H          3.66568        0.47532       -0.58258
H          4.20406        1.97740        0.23170
H          2.68221        1.28471        2.90844
H          2.67446        2.87829        2.09191
H          1.13908        1.99995        2.35666
H         -2.12450       -1.34767        1.83555
H         -3.80488       -1.32099        2.36604
H         -3.63390       -2.23916        0.09820
H         -4.54702       -0.70958        0.06361
H         -1.65367       -1.01021       -0.56075
H         -2.85796       -0.86140       -1.69864
H         -2.10787        0.95257        1.58044
H         -3.75001        1.10747        1.81771
C         -3.08808       -0.85130        1.68213
C         -3.56926       -1.15991        0.25827
N         -2.93129        0.54566        2.01748
N         -2.61104       -0.61745       -0.74130
