26
1sa1msa1dma_21.log	Energy: -941000.5251569
S          2.05843        0.65784        0.03336
O          1.41169       -0.55658        0.52805
O          3.48929        0.72279       -0.05421
O          1.47511        0.95229       -1.40943
O          1.56556        1.87233        0.90373
H          0.47952        0.83712       -1.40655
H          0.56857        1.83129        1.00626
S         -1.78553        0.75472        0.07164
O         -1.13420        0.56886       -1.25849
O         -1.05611        1.70383        0.94331
O         -2.06337       -0.55780        0.72033
H         -0.95884       -1.73668        0.37355
C         -3.37277        1.49672       -0.23485
H         -3.20490        2.45851       -0.71933
H         -3.94593        0.83154       -0.88046
H         -3.86953        1.63005        0.72608
N         -0.62651       -2.68407        0.04144
C          0.26645       -3.31189        1.04701
C         -0.03036       -2.55210       -1.31385
H         -1.49132       -3.22053       -0.02697
H          1.15349       -2.68764        1.14114
H         -0.25900       -3.35330        2.00109
H          0.53074       -4.31755        0.71566
H          0.92088       -2.03442       -1.20788
H          0.11169       -3.54519       -1.74329
H         -0.70014       -1.94776       -1.92562
