35
1sa1msa1ma1eda_87.log	Energy: -1035890.6238467
S          0.88120       -1.52388       -0.51998
O          2.01522       -2.38577       -0.83260
O         -0.41049       -2.23000       -0.36120
O          1.15569       -0.90792        0.95693
O          0.76774       -0.34360       -1.41438
H          2.15073       -0.85282        1.07584
H          0.09563        1.04521       -0.83675
S         -3.03116        0.04754        0.28778
O         -3.00201        0.47948       -1.10519
O         -2.26998        0.89400        1.22222
O         -2.63019       -1.44773        0.44384
H         -1.67924       -1.69928        0.09067
C         -4.70808       -0.04524        0.86008
H         -5.11370        0.96600        0.82204
H         -5.25932       -0.70916        0.19487
H         -4.70345       -0.42515        1.88120
N         -0.17061        1.95249       -0.37651
H         -0.87728        1.71076        0.33715
C         -0.71007        2.91118       -1.36047
H         -0.95033        3.85181       -0.86382
H          0.03647        3.08372       -2.13596
H         -1.60938        2.47970       -1.79988
H          0.70018        2.27284        0.09992
H          2.79579        1.02206       -0.86226
H          3.81738        2.42053       -0.52484
H          5.22645        0.50768       -0.28487
H          4.89134        1.06692        1.35733
H          3.80051       -1.31364        0.04951
H          4.45491       -1.16147        1.54013
H          2.03308        1.22050        1.46848
H          2.81801        2.65061        1.58237
C          3.34844        1.54192       -0.07061
C          4.43609        0.61063        0.47097
N          2.37814        2.01123        0.92763
N          3.87321       -0.69142        0.85565
