35
1sa1msa1ma1eda_180.log	Energy: -1035885.0374625
S         -0.00632        0.05932        0.87786
O          1.19020       -0.02451        1.74175
O         -1.19427        0.62171        1.51508
O          0.34758        1.15509       -0.26725
O         -0.27202       -1.20883        0.15262
H          1.23256        0.94139       -0.64936
H         -1.86635       -1.14650       -0.43816
S          3.94791       -0.06761       -0.34362
O          4.92392        0.94438        0.00662
O          2.78064        0.34806       -1.13700
O          3.45796       -0.85624        0.92664
H          2.54473       -0.53861        1.25618
C          4.76205       -1.38222       -1.21860
H          5.18557       -0.94791       -2.12456
H          5.54987       -1.77682       -0.57716
H          4.02485       -2.14794       -1.45664
N         -2.47528        1.86443       -1.18317
H         -1.46468        1.87541       -1.03447
C         -3.12869        2.67704       -0.14724
H         -2.85855        3.73831       -0.19372
H         -4.21584        2.59503       -0.24648
H         -2.82870        2.28822        0.82771
H         -2.64497        2.25551       -2.10469
H         -3.59433       -1.99119        0.93500
H         -3.36103       -0.27230        1.27851
H         -5.80298       -0.81282        1.01536
H         -5.25871        0.29343       -0.24850
H         -5.73984       -2.57291       -0.60374
H         -6.34193       -1.32326       -1.46664
H         -3.25201       -1.40035       -1.41962
H         -2.78117        0.17670       -0.95427
C         -3.71963       -0.98196        0.53199
C         -5.16484       -0.73174        0.12554
N         -2.84846       -0.85039       -0.65823
N         -5.52733       -1.64614       -0.95866
