33
1sa1msa1ma1dma_116.log	Energy: -1001153.0110310
S         -1.17289       -1.65569       -0.11479
O          0.09634       -2.41142       -0.32600
O         -0.98852       -0.55098        0.84116
O         -1.89377       -1.30273       -1.33113
O         -2.16417       -2.73048        0.60244
H         -1.69064       -3.12631        1.34623
S          2.54329        0.01503        0.07026
O          2.71188        0.92297        1.19529
O          1.58932        0.42257       -0.97040
O          2.20450       -1.42226        0.57183
H          1.31012       -1.80238        0.18655
C          4.12663       -0.23750       -0.69661
H          4.46811        0.72751       -1.07221
H          4.81191       -0.61918        0.06024
H          4.00438       -0.95250       -1.50981
N         -3.10941        1.35960       -0.72494
H         -3.65786        1.88456       -1.39867
C         -3.88261        1.12528        0.50276
H         -4.83609        0.61508        0.32395
H         -3.28026        0.50564        1.17073
H         -4.08522        2.07923        0.99860
H         -2.87703        0.45852       -1.15162
N         -0.51315        2.07610       -0.06175
C         -0.00189        3.14181       -0.94151
C         -0.39750        2.37565        1.38152
H         -1.53099        1.85511       -0.31266
H          1.05500        3.30867       -0.72990
H         -0.11596        2.82481       -1.97832
H         -0.56879        4.05856       -0.76789
H          0.65707        2.48888        1.63866
H         -0.94835        3.29277        1.59998
H         -0.81600        1.53392        1.93071
H          0.01979        1.21494       -0.25782
