38
1sa1msa1dma1eda_57.log	Energy: -1060564.5196867
S          2.91215        0.39155       -0.11998
O          2.01946        0.44312        1.04147
O          3.08656       -0.96868       -0.67727
O          2.59390        1.40234       -1.15170
O          4.36024        0.80741        0.48837
H          5.00773        0.78125       -0.22904
S         -2.45678       -0.87397       -0.03142
O         -2.92644        0.22178        0.83155
O         -2.28520       -2.18430        0.61595
O         -1.19418       -0.48669       -0.77981
C         -3.69157       -1.08244       -1.30598
H         -4.61979       -1.38560       -0.82081
H         -3.82353       -0.13053       -1.82118
H         -3.35066       -1.85149       -1.99917
N          0.76816       -2.28673        0.10235
C          0.44743       -3.52799       -0.63198
C          0.74935       -2.43888        1.57669
H          1.69200       -1.91128       -0.19803
H         -0.56550       -3.83079       -0.36404
H          0.50736       -3.32690       -1.70181
H          1.16715       -4.30198       -0.36122
H         -0.26116       -2.71535        1.87779
H          1.47002       -3.20776        1.86019
H          1.03601       -1.48237        2.01240
H          0.06750       -1.56564       -0.17302
H         -0.19892        4.04062       -0.57180
H         -0.96306        3.08206       -1.86094
H         -2.60147        4.15505       -0.18353
H         -2.78721        2.41003       -0.39210
H         -2.17748        3.71054        2.00296
H         -2.29438        2.08527        1.70932
H          0.93453        1.92656       -0.74191
H          0.06317        2.01276        0.68034
C         -0.80134        3.15369       -0.78316
C         -2.12092        3.18771       -0.00487
N         -0.02291        1.97702       -0.34231
N         -1.86129        2.95489        1.41153
H         -0.50856        1.07555       -0.55568
