30
1sa1msa2ma_101.log	Energy: -976490.8429351
S          0.62322       -0.57760        0.86144
O          0.28732        0.86174        0.62401
O          0.38898       -1.38347       -0.34739
O          1.97543       -0.74194        1.43034
O         -0.34383       -1.08460        2.01506
H         -1.27353       -0.87674        1.75184
S         -3.04281        0.25212       -0.28828
O         -4.34773        0.82451       -0.52927
O         -2.76505       -0.35096        1.02163
O         -1.96339        1.37517       -0.57153
H         -1.09779        1.18348       -0.08835
C         -2.69216       -0.97251       -1.52949
H         -3.42082       -1.77357       -1.39823
H         -2.80803       -0.50365       -2.50660
H         -1.67404       -1.33530       -1.36984
N          2.70401        1.84125       -0.79748
H          2.77079        2.46708       -1.59406
C          3.24584        2.47915        0.41430
H          2.75599        3.42866        0.65245
H          3.09443        1.79917        1.25624
H          4.31756        2.65884        0.28940
H          1.71210        1.65330       -0.63196
N          3.68011       -0.70539       -0.66032
H          3.14239       -0.92188        0.21438
H          3.38790        0.32095       -0.86082
C          3.28612       -1.60948       -1.76564
H          3.75680       -1.27829       -2.69189
H          3.59162       -2.63002       -1.53468
H          2.19950       -1.57370       -1.84808
H          4.67703       -0.74824       -0.46360
