33
1sa1msa1a1tma_05.log	Energy: -1001165.3420250
S          1.22351       -1.68089       -0.29741
O          1.01008       -3.04937       -0.73963
O          0.57655       -0.67224       -1.37268
O          0.53762       -1.36965        0.99854
O          2.62648       -1.20243       -0.26761
H         -0.88758       -1.98366        1.19049
H          2.43120        0.40771       -0.02990
S         -2.37175        0.78116       -0.06355
O         -1.28709        1.76921        0.05638
O         -2.91344        0.30077        1.23983
O         -2.01300       -0.38322       -0.93974
H         -0.41149       -0.60106       -1.25585
C         -3.72852        1.59746       -0.88582
H         -3.37270        1.95483       -1.85238
H         -4.53671        0.87738       -1.01357
H         -4.04844        2.43084       -0.25989
N         -1.92934       -2.23075        1.22626
H         -2.19994       -2.51610        0.28577
H         -2.43273       -1.33157        1.42510
H         -2.12742       -2.96062        1.90309
N          2.44294        1.43765        0.21315
C          1.84024        2.19509       -0.91349
H          2.35209        1.91510       -1.83442
H          0.78321        1.93689       -0.97653
H          1.95802        3.26410       -0.71939
C          1.66037        1.60868        1.46679
H          0.61179        1.39730        1.25407
H          2.03873        0.90494        2.20813
H          1.77616        2.63869        1.81344
C          3.87523        1.76068        0.40273
H          4.27519        1.12521        1.19321
H          4.40697        1.55755       -0.52731
H          3.97880        2.81371        0.67362
