32
1sa1msa1a1eda_146.log	Energy: -1011228.4552739
S         -1.52766       -1.42127       -0.19506
O         -0.78144       -0.39147       -1.07708
O         -1.25701       -1.13372        1.21667
O         -2.92529       -1.42043       -0.60929
O         -0.88094       -2.80116       -0.55538
H         -0.07831       -2.98086        0.09921
S          2.39142        0.46801       -0.06621
O          2.60280       -0.51001        0.99917
O          1.75261        1.73060        0.30327
O          1.66188       -0.18748       -1.28094
H          0.61767       -0.30574       -1.14546
C          3.96288        0.82141       -0.81803
H          4.59579        1.25210       -0.04156
H          4.38619       -0.11264       -1.18638
H          3.80753        1.53042       -1.63052
N          1.02825       -3.09990        1.17484
H          1.65629       -2.29561        1.11407
H          1.58431       -3.94781        1.20014
H          0.52752       -3.01106        2.05479
H         -3.47873        2.60930        0.55810
H         -3.10047        0.87681        0.79984
H         -1.65968        2.45494        2.22912
H         -0.74825        1.36582        1.18937
H         -0.94259        4.22825        0.91761
H          0.21600        3.17274        0.40222
H         -1.82473        2.57946       -1.20055
H         -1.72137        0.88704       -1.13342
C         -2.71067        1.83697        0.45948
C         -1.42171        2.22665        1.18494
N         -2.36415        1.72628       -0.98586
N         -0.78452        3.33432        0.46959
H         -3.17836        1.62332       -1.58597
