35
1sa1msa1ma1eda_33.log	Energy: -1035900.4079492
S          2.83161        0.47275        0.25125
O          2.47520        1.66107        1.02488
O          3.03802       -0.75875        1.02113
O          1.92112        0.25374       -0.91738
O          4.23935        0.79965       -0.50136
H          4.88431        1.04875        0.17448
S         -2.33262       -1.28781        0.07073
O         -1.76874       -2.47998       -0.62452
O         -3.01814       -0.33008       -0.80944
O         -1.27843       -0.63287        0.91575
C         -3.54777       -1.92165        1.21307
H         -4.31529       -2.43651        0.63464
H         -3.05388       -2.61087        1.89786
H         -3.97694       -1.07940        1.75602
N          0.92844       -2.25869       -0.24068
H         -0.08115       -2.44469       -0.45219
H          1.21083       -1.36597       -0.69202
C          1.83648       -3.35454       -0.63541
H          2.85506       -3.07184       -0.37051
H          1.54941       -4.26827       -0.11525
H          1.75489       -3.50668       -1.71117
H          1.00435       -2.05496        0.75749
H         -0.72997        2.98362       -1.77090
H         -1.65450        1.45190       -1.77096
H         -3.12710        3.35991       -1.15021
H         -2.97307        2.16963        0.14014
H         -1.69106        4.80786        0.08374
H         -2.53445        4.10105        1.29461
H          0.53625        1.34508       -0.58642
H         -0.09655        2.42314        0.53120
C         -1.28199        2.26976       -1.15301
C         -2.42997        2.94183       -0.41237
N         -0.33675        1.70721       -0.16090
N         -1.89350        3.92104        0.53209
H         -0.75996        0.88763        0.33814
