32
1sa1msa1a1eda_27.log	Energy: -1011242.4346224
S          2.33655        0.56924       -0.22949
O          1.93870       -0.03008        1.09208
O          1.53581        1.79560       -0.46291
O          3.76268        0.66625       -0.44713
O          1.83053       -0.52184       -1.31708
H          0.84001       -0.55035       -1.31073
S         -1.47666       -1.53724       -0.01631
O         -0.79602       -2.85225        0.12440
O         -0.84643       -0.68273       -1.06648
O         -1.61269       -0.81461        1.27231
C         -3.12616       -1.87676       -0.58736
H         -3.05791       -2.39346       -1.54457
H         -3.62097       -2.49952        0.15791
H         -3.63448       -0.91696       -0.69199
N          1.83454       -2.64434        0.71632
H          2.19047       -3.27883        1.42480
H          0.81193       -2.81592        0.52349
H          1.93470       -1.62110        1.00824
H          2.35351       -2.74868       -0.15469
H         -2.37625        2.62729        1.64082
H         -0.98620        3.74002        1.50232
H         -2.39860        3.92224       -0.46368
H         -0.81156        3.28111       -0.90730
H         -2.90549        2.15019       -1.81936
H         -1.80848        1.13393       -1.16364
H         -0.10201        1.70640        2.22509
H         -0.98543        0.77557        1.19591
C         -1.45682        2.84302        1.09231
C         -1.75239        3.04213       -0.38893
N         -0.51901        1.70705        1.29610
N         -2.45416        1.89355       -0.94915
H          0.28062        1.74918        0.60966
