38
1sa1msa1dma1eda_373.log	Energy: -1060533.2996975
S         -1.09916        0.32440       -0.61181
O         -2.15699        1.32071       -0.79724
O         -0.43722        0.39201        0.71119
O         -1.58841       -1.06100       -0.90122
O         -0.00601        0.67129       -1.71049
H         -3.13132       -1.02968       -0.95777
H          0.81649        0.14376       -1.53893
S          2.74261       -1.17905        0.12442
O          4.02487       -0.54839        0.36575
O          2.06403       -0.95508       -1.15918
O          1.73955       -0.90912        1.31393
H          0.95687       -0.33613        1.03807
C          2.95261       -2.93644        0.30564
H          3.66462       -3.25353       -0.45679
H          3.34794       -3.12995        1.30272
H          1.98571       -3.41745        0.16235
N          2.15500        1.96688        0.15731
C          3.05553        2.42538       -0.88500
C          2.60885        2.30721        1.49344
H          1.22212        2.33190        0.00238
H          4.00570        1.88923       -0.79488
H          2.62829        2.19391       -1.86465
H          3.26430        3.50966       -0.84179
H          3.54437        1.77570        1.69626
H          2.78739        3.38809        1.63831
H          1.86762        1.97570        2.22605
H         -5.63647       -1.40444        0.63830
H         -4.04287       -2.17572        0.88304
H         -4.55778       -0.18742        2.44374
H         -3.04339       -0.05223        1.55422
H         -5.21838        1.71339        1.39173
H         -3.81822        1.74223        0.50110
H         -4.68047       -1.53597       -1.49656
H         -4.45394        0.04223       -0.96784
C         -4.55471       -1.25824        0.58719
C         -4.13243       -0.05648        1.44455
N         -4.19735       -0.94805       -0.82254
N         -4.60073        1.16963        0.80555
