20
1sa1msa1a_25.log	Energy: -891665.0673074
S         -2.05833       -0.49965       -0.01844
O         -3.42603       -0.04778       -0.01841
O         -1.71344       -1.87334       -0.31012
O         -1.16589        0.38325       -0.97201
O         -1.48544       -0.09282        1.42748
H         -1.10637        1.38889       -0.65700
H         -0.54167       -0.35331        1.47975
S          2.00682       -0.05209        0.05516
O          1.97438        1.34772       -0.31477
O          1.25345       -0.50499        1.22558
O          3.54731       -0.45030        0.34464
H          3.60111       -0.84436        1.22801
C          1.63904       -1.06366       -1.35108
H          0.61157       -0.82630       -1.63439
H          2.34568       -0.80494       -2.13962
H          1.72969       -2.10762       -1.05288
N         -0.78418        2.77528       -0.11951
H         -1.18851        2.89191        0.80502
H         -1.07756        3.55518       -0.69840
H          0.23059        2.78955       -0.03406
