32
1sa1msa1a1eda_56.log	Energy: -1011239.8167157
S          2.53215       -0.26215       -0.14209
O          3.48993       -1.32609       -0.35171
O          1.72646       -0.18124       -1.55114
O          1.45083       -0.58475        0.86010
O          3.07562        1.08487        0.12864
H          0.28816       -1.51321        0.11779
H          2.08620        1.92943        1.26346
S         -1.49817        1.50215       -0.24798
O         -0.68488        2.70511        0.07458
O         -1.85088        0.71381        0.95383
O         -0.86951        0.66107       -1.31098
H          0.92386        0.38466       -1.46724
C         -3.01560        2.11295       -0.95454
H         -2.76670        2.69916       -1.83918
H         -3.63289        1.25473       -1.22278
H         -3.51330        2.73082       -0.20703
N          1.22147        2.01832        1.84682
H          1.36709        2.55089        2.69793
H          0.96779        1.04175        2.03965
H          0.45819        2.42038        1.24257
H         -1.44282       -3.74401       -0.89709
H         -0.16729       -3.86618        0.34676
H         -2.44777       -3.77385        1.35446
H         -1.47685       -2.38747        1.84532
H         -3.93303       -2.24445        0.63974
H         -2.84635       -0.99933        0.70718
H          0.29668       -2.17248       -1.38814
H         -1.00946       -1.29583       -0.89706
C         -0.95611       -3.23166       -0.06440
C         -1.98989       -2.84904        0.99094
N         -0.32083       -2.00275       -0.59277
N         -2.99009       -1.96283        0.40970
