30
1sa1msa2ma_22.log	Energy: -976497.9765569
S         -2.20278       -0.66752        0.14671
O         -1.61183        0.64036        0.43322
O         -1.54377       -1.71968        1.11970
O         -3.62653       -0.83555        0.20458
O         -1.72388       -1.11869       -1.28797
H         -0.72606       -1.04609       -1.35757
S          1.77764       -0.96743       -0.16062
O          2.57279        0.28041       -0.02263
O          0.89109       -0.94893       -1.35431
O          1.04598       -1.30520        1.09081
H         -0.54946       -1.58482        1.15466
C          2.95932       -2.26944       -0.43238
H          3.50415       -2.04400       -1.34906
H          3.63302       -2.29941        0.42385
H          2.41201       -3.20723       -0.52865
N         -0.55389        2.96390       -0.90350
H         -1.30185        2.35703       -0.56584
C          0.00951        2.38812       -2.13630
H         -0.72814        2.29859       -2.94118
H          0.83703        3.01105       -2.48657
H          0.40059        1.39116       -1.91837
H         -0.95402        3.87893       -1.08455
N          1.28567        2.41256        1.05262
H          0.56787        2.74397        0.31278
H          1.80239        1.60068        0.63245
C          0.60906        1.99199        2.30346
H          1.34320        1.58035        2.99587
H          0.10708        2.85083        2.75028
H         -0.12503        1.23049        2.04367
H          1.95895        3.15655        1.22105
