33
1sa1msa1ma1dma_51.log	Energy: -1001156.7465572
S         -2.42582        0.49149       -0.13189
O         -1.18725        1.16323       -0.50149
O         -2.24720       -0.10067        1.33394
O         -3.66503        1.21243       -0.17365
O         -2.58351       -0.81447       -1.02030
H         -1.82901       -1.42035       -0.80950
S          0.81490       -1.88796        0.15054
O          1.49295       -1.06405        1.16980
O          1.07801       -1.44478       -1.24105
O         -0.66045       -2.01750        0.41213
H         -1.55388       -0.81105        1.29082
C          1.45320       -3.54461        0.29048
H          2.52643       -3.50822        0.10299
H          1.24888       -3.90119        1.30002
H          0.95152       -4.16769       -0.44981
N          0.94189        1.87505        1.46098
H         -0.03610        2.14893        1.46016
C          1.73102        2.68681        2.38809
H          1.38258        2.62831        3.42655
H          2.77237        2.35447        2.36067
H          1.70335        3.73430        2.07592
H          0.97027        0.88852        1.72211
N          1.66459        1.27332       -1.12614
C          3.12390        1.08035       -1.03166
C          1.22877        2.20465       -2.18239
H          1.23665        0.33738       -1.26673
H          3.60217        2.03884       -0.82005
H          3.31576        0.37627       -0.22090
H          3.50555        0.67305       -1.96950
H          1.67210        3.18590       -2.00147
H          1.55160        1.83066       -3.15599
H          0.14200        2.27301       -2.14756
H          1.32542        1.60711       -0.16232
