38
1sa1msa1dma1eda_14.log	Energy: -1060565.0746184
S         -2.83929        0.32815       -0.30578
O         -2.53424        1.35883       -1.31975
O         -3.30559       -0.94790       -0.84420
O         -1.76073        0.20138        0.70397
O         -4.05662        0.93697        0.59375
H         -4.83341        1.01961        0.02430
S          2.56438       -0.77269       -0.12831
O          2.21275       -1.84301        0.84728
O          3.29247        0.36666        0.45032
O          1.35129       -0.36139       -0.90558
C          3.66111       -1.53209       -1.31518
H          4.55068       -1.86823       -0.78190
H          3.14785       -2.37635       -1.77606
H          3.92249       -0.78455       -2.06429
N         -0.50017       -2.23343        0.61184
C         -1.15179       -2.95902        1.71927
C         -0.69243       -2.85963       -0.71629
H         -0.89621       -1.26886        0.58662
H         -0.73351       -3.96437        1.79040
H         -0.97131       -2.41844        2.64829
H         -2.22438       -3.00834        1.52651
H         -0.28907       -3.87363       -0.69098
H         -1.75690       -2.86204       -0.95294
H         -0.15269       -2.25514       -1.44487
H          0.52558       -2.12504        0.78761
H         -0.37040        3.77437        0.39502
H         -0.63215        2.22557        1.23580
H          1.45298        3.57211        1.99548
H          1.74586        1.88736        1.55795
H          2.86929        4.13048        0.30999
H          3.11094        2.52630        0.00909
H         -0.85700        1.94676       -1.11110
H          0.71442        2.60046       -1.33489
C          0.04555        2.78181        0.58737
C          1.46081        2.86522        1.15925
N          0.09504        2.07228       -0.71560
N          2.40758        3.25294        0.11191
H          0.52418        1.12189       -0.63439
