38
1sa1msa1dma1eda_363.log	Energy: -1060534.7806889
S          0.75620       -1.72242        0.56314
O         -0.54426       -2.22309        1.04355
O          1.91442       -2.58148        0.77827
O          0.64796       -1.61206       -1.04155
O          1.00759       -0.31975        1.03364
H         -0.19017       -1.13891       -1.26667
H          2.52955       -0.10756        0.92626
S         -2.87981       -0.29003       -0.63927
O         -3.85529       -1.19362       -1.21599
O         -1.59153       -0.14411       -1.34218
O         -2.59324       -0.64660        0.87480
H         -1.81623       -1.28854        0.96761
C         -3.58413        1.32186       -0.43670
H         -3.88082        1.65446       -1.43250
H         -4.45886        1.22289        0.20660
H         -2.82818        1.98810       -0.00264
N         -1.01095        3.01798        0.84587
C          0.03934        2.67032       -0.09850
C         -0.88804        2.29681        2.10765
H         -1.00277        4.01715        1.01939
H         -0.06332        1.61575       -0.36747
H         -0.06555        3.27124       -1.00714
H          1.05570        2.81502        0.31588
H         -0.99431        1.22523        1.92277
H          0.08558        2.45166        2.60323
H         -1.68302        2.61172        2.78906
H          4.81511       -0.39872       -0.98681
H          3.24822       -1.25506       -1.01629
H          3.24076        0.72859       -2.57469
H          2.04288        0.86602       -1.28689
H          4.53492        2.37391       -1.48988
H          3.04630        2.87900       -1.03783
H          4.03904       -0.79481        1.25158
H          3.94715        0.85771        0.89423
C          3.74621       -0.31651       -0.77050
C          3.11650        0.86711       -1.49457
N          3.58336       -0.07851        0.68986
N          3.70063        2.10806       -0.97833
