36
1sa1msa1ma1tma_52.log	Energy: -1025813.3695025
S          0.73099       -2.00881       -0.25656
O          0.14094       -1.89556        1.07957
O         -0.21659       -1.68313       -1.35724
O          2.02464       -1.33390       -0.43055
O          1.00933       -3.60275       -0.39845
H          1.37799       -3.76751       -1.27668
S         -2.56124        0.59187        0.09541
O         -3.75646        1.38861       -0.08737
O         -1.30514        1.27531        0.41992
O         -2.36493       -0.25143       -1.22854
H         -1.51730       -0.80253       -1.22442
C         -2.84278       -0.65163        1.33462
H         -2.99846       -0.13233        2.28120
H         -3.73603       -1.20854        1.05169
H         -1.96056       -1.29562        1.37974
N          1.16257        0.78506        1.81939
H          0.58003        1.41120        2.36674
C          2.40999        0.45553        2.51480
H          2.25185       -0.01586        3.49186
H          2.97767       -0.23677        1.88857
H          3.00535        1.36236        2.66353
H          0.61809       -0.06828        1.68176
N          1.58222        1.86986       -0.64326
C          3.04601        1.68367       -0.76869
H          3.52421        2.01968        0.15277
H          3.23657        0.62024       -0.91468
H          3.41805        2.26684       -1.61496
C          0.87409        1.38066       -1.85117
H          1.10410        0.32592       -1.99116
H         -0.19599        1.50203       -1.69657
H          1.20631        1.96737       -2.71245
C          1.21842        3.27058       -0.33674
H          0.13872        3.31797       -0.19035
H          1.72589        3.57289        0.58106
H          1.52336        3.92073       -1.16050
H          1.30183        1.31675        0.25271
