20
1sa1msa1a_16.log	Energy: -891672.8193460
S         -2.04350       -0.46993        0.10698
O         -1.31406       -1.54110       -0.55802
O         -3.35711       -0.76841        0.63720
O         -1.15520        0.31401        1.04012
O         -2.28797        0.71459       -1.04617
H         -0.83445        1.89957        0.57632
H         -3.04174        0.44226       -1.58590
S          2.20653       -0.09953        0.00440
O          3.59818        0.00228        0.37571
O          1.61444        1.00185       -0.78114
O          1.37463       -0.27121        1.33838
H          0.38450       -0.15066        1.20444
C          1.90628       -1.60379       -0.88556
H          2.42624       -1.51819       -1.84031
H          2.31487       -2.42216       -0.29277
H          0.82751       -1.71162       -1.02198
N         -0.42958        2.60627       -0.08754
H         -1.07961        2.64645       -0.87261
H          0.46759        2.16922       -0.40542
H         -0.28721        3.51920        0.33370
