33
1sa1msa1ma1dma_96.log	Energy: -1001154.9844290
S          0.38121       -1.27526        0.30625
O         -0.76163       -2.16970        0.04702
O          1.69051       -1.95187        0.28542
O          0.49651       -0.28772       -0.98347
O          0.17607       -0.38823        1.46555
H         -0.36987        0.17820       -1.07787
H          2.99325        0.81528        0.22275
S         -3.13940        0.36334       -0.26486
O         -4.42178        0.84767       -0.72098
O         -1.92566        0.88542       -0.91353
O         -3.15502       -1.21137       -0.38344
H         -2.24154       -1.60668       -0.22839
C         -2.97098        0.64275        1.48334
H         -2.99429        1.72254        1.63640
H         -3.81491        0.16525        1.98102
H         -2.01471        0.22352        1.80605
N          1.96993        1.94855        0.96842
H          1.26084        1.29082        1.30748
C          1.36342        2.88386        0.01081
H          0.53161        3.45743        0.43444
H          2.12045        3.58424       -0.35250
H          0.98045        2.31694       -0.83984
H          2.32094        2.45046        1.77831
N          3.52096       -0.00408       -0.23224
C          4.81823       -0.18812        0.44230
C          3.61209        0.21562       -1.68950
H          2.90455       -0.83214       -0.04892
H          5.43285        0.70304        0.30049
H          4.64117       -0.34776        1.50636
H          5.32925       -1.05777        0.02580
H          4.15726        1.14156       -1.88337
H          4.13091       -0.62458       -2.15447
H          2.59811        0.28093       -2.08351
