35
1sa1msa1ma1eda_209.log	Energy: -1035885.6063249
S         -0.23805       -0.65597       -0.79928
O          0.32471        0.68085       -1.12571
O         -1.55306       -0.91373       -1.37538
O          0.73054       -1.73777       -1.45435
O         -0.20424       -0.88883        0.67883
H          1.65639       -1.54554       -1.16808
H         -1.75008       -1.34007        1.14828
S          3.47156        0.21979        0.30200
O          4.85168        0.62599        0.43292
O          3.15573       -0.96797       -0.50109
O          2.65946        1.45389       -0.26395
H          1.76342        1.16375       -0.62105
C          2.76189       -0.02191        1.91573
H          3.29253       -0.85621        2.37635
H          2.90999        0.89411        2.48752
H          1.70278       -0.25707        1.78589
N         -2.77357       -1.54178        1.27571
H         -2.97851       -1.58932        2.27089
C         -3.13973       -2.79562        0.57825
H         -4.21064       -2.97322        0.68529
H         -2.87802       -2.66860       -0.47180
H         -2.58024       -3.63176        0.99830
H         -3.30000       -0.69709        0.83356
H         -4.42506        2.65641        0.49060
H         -3.85973        1.71768        1.88280
H         -2.06512        3.19919        1.06362
H         -1.60656        1.51558        0.82141
H         -2.26517        3.42254       -1.24643
H         -1.25263        2.11398       -1.28148
H         -5.01151        0.49049       -0.06250
H         -3.56877        0.67271       -0.82124
C         -3.73371        1.86264        0.80285
C         -2.30049        2.29476        0.48599
N         -4.01495        0.59916        0.09918
N         -2.14800        2.46154       -0.95241
