32
1sa1msa1a1eda_275.log	Energy: -1011225.1146394
S         -2.26180       -0.83852       -0.19075
O         -2.54606       -1.11905        1.21259
O         -2.63874        0.52608       -0.63135
O         -0.90321       -1.19183       -0.66268
O         -3.18488       -1.85830       -1.05714
H         -4.04873       -1.90751       -0.62596
S          2.46615       -0.53783       -0.21240
O          3.25532        0.23464        0.72727
O          1.89341        0.13352       -1.38526
O          1.32943       -1.30114        0.56967
H          0.42391       -1.23355        0.11492
C          3.46048       -1.88947       -0.80334
H          4.30569       -1.46010       -1.34207
H          3.80439       -2.45776        0.06074
H          2.84903       -2.50642       -1.46144
N         -0.32894       -0.13518        3.11144
H          0.41694       -0.80148        2.93373
H         -1.17543       -0.51102        2.68603
H         -0.47180       -0.08315        4.11378
H          0.59287        3.56109       -1.12015
H         -1.18177        3.70126       -1.19561
H         -0.31859        3.79213        1.17019
H         -1.41977        2.43506        0.89743
H          1.48272        2.19887        1.16922
H          0.27573        1.28083        1.84816
H         -0.33966        1.86523       -2.56161
H          0.37592        1.17094       -1.23014
C         -0.35160        3.08173       -0.84837
C         -0.42487        2.82405        0.65827
N         -0.40856        1.77304       -1.55107
N          0.55344        1.82161        1.02190
H         -1.29900        1.27172       -1.30680
