27
1sa1msa1a1ma_109.log	Energy: -951831.0749061
S          0.87685       -0.90138       -0.33760
O          0.40769       -0.61022        1.07331
O          0.69263        0.28836       -1.18478
O          2.22891       -1.46092       -0.33017
O         -0.06349       -2.05899       -0.87813
H         -1.00388       -1.76712       -0.78708
S         -2.85004        0.31156        0.12132
O         -4.20020        0.57230        0.56413
O         -2.52557       -1.01354       -0.42216
O         -1.87786        0.61518        1.33529
H         -1.00126        0.12655        1.23738
C         -2.37363        1.52259       -1.09027
H         -3.02010        1.37679       -1.95654
H         -2.52747        2.51043       -0.65609
H         -1.32659        1.34784       -1.34709
N          2.93182       -0.10151        1.98680
H          3.32684       -0.94011        1.55712
H          3.31856        0.07042        2.90945
H          3.07641        0.73024        1.27184
H          1.90500       -0.27309        2.00555
N          3.10458        1.71589       -0.00301
H          2.18995        1.56999       -0.44017
C          4.14699        1.25309       -0.93590
H          4.14228        1.80187       -1.88300
H          5.13058        1.36390       -0.47109
H          3.96878        0.19641       -1.14679
H          3.20012        2.71083        0.17768
