23
1sa1msa1ma_31.log	Energy: -916330.9136065
S         -1.23635       -0.57807       -0.10527
O         -2.49591       -1.30133       -0.37502
O         -0.32803       -0.50696       -1.26486
O         -1.49470        0.76040        0.49742
O         -0.51640       -1.46456        1.00446
H         -3.15386        0.91711        0.80827
H          0.41931       -1.15993        1.09407
S          2.86298        0.11584        0.01119
O          3.97567       -0.70718       -0.41213
O          1.96520       -0.40541        1.05166
O          2.00411        0.57370       -1.23026
H          1.08381        0.14726       -1.24392
C          3.48190        1.68503        0.56977
H          4.13565        1.48577        1.41933
H          4.04159        2.13918       -0.24783
H          2.63550        2.30553        0.86227
N         -4.11917        0.53429        0.62504
H         -3.83765       -0.42152        0.30031
C         -4.79577        1.28067       -0.45943
H         -5.74102        0.79677       -0.70305
H         -4.96784        2.30941       -0.14467
H         -4.13936        1.26647       -1.32905
H         -4.66434        0.48619        1.48202
