40
1sa1msa2eda_162.log	Energy: -1095283.5538735
S          0.28518       -1.12190       -0.97716
O          0.14867       -0.64122        0.45483
O          0.59826       -2.54630       -1.01787
O         -0.92256       -0.70548       -1.73650
O          1.45953       -0.29870       -1.61210
H         -2.20337       -0.55327       -0.69542
H          2.39536       -0.65812       -1.23519
S         -0.97553        2.70216        0.14164
O         -0.93192        4.05569        0.65152
O         -2.22923        1.94810        0.23558
O          0.16834        1.89176        0.87435
H          0.11943        0.89294        0.69007
C         -0.46537        2.69105       -1.56357
H         -1.19521        3.28482       -2.11573
H          0.52313        3.14562       -1.62352
H         -0.44970        1.65963       -1.92131
H         -4.42646       -1.92472        0.74755
H         -3.87887       -2.23869       -0.92388
H         -2.98415       -3.89369        0.81806
H         -1.72735       -3.09520       -0.12359
H         -2.00557       -2.99053        2.64852
H         -0.95993       -2.10306        1.72245
H         -3.60824        0.15456       -0.11192
H         -2.49180       -0.44352        0.94249
C         -3.55944       -1.96527        0.08375
C         -2.50138       -2.92969        0.63372
N         -2.95681       -0.61269        0.04052
N         -1.93160       -2.36813        1.85621
H          5.24928       -0.52815        0.64924
H          4.70141        0.65976       -0.55730
H          3.98286        1.17959        1.80594
H          2.64678        1.07718        0.66270
H          2.82617       -0.34034        2.97502
H          1.86045       -0.74323        1.71101
H          4.26480       -1.59696       -1.30085
H          3.37026       -1.88328        0.04310
C          4.36884       -0.11265        0.14332
C          3.41541        0.48687        1.17687
N          3.65921       -1.15756       -0.61428
N          2.82336       -0.57564        1.99154
