38
1sa1msa1dma1eda_203.log	Energy: -1060549.9374459
S         -0.39493       -2.03881       -0.04307
O         -0.11641       -0.78565       -0.82864
O         -1.66930       -2.65042       -0.38591
O          0.79778       -2.89891       -0.02691
O         -0.47937       -1.53428        1.49480
H         -1.17985       -0.84739        1.54936
S         -2.83682        1.05655        0.03145
O         -3.48882        2.34680        0.02528
O         -2.04233        0.68480        1.21559
O         -1.90423        0.97774       -1.23783
H         -1.20980        0.23730       -1.12543
C         -4.02782       -0.23327       -0.24688
H         -4.70442       -0.23768        0.60857
H         -4.56630        0.00401       -1.16439
H         -3.49364       -1.18328       -0.33418
N          2.77647       -0.95244       -0.02444
C          3.99701       -1.23972        0.74989
C          3.02065       -0.70573       -1.46468
H          2.10749       -1.74988        0.05624
H          4.70114       -0.41507        0.62704
H          3.73248       -1.35507        1.80154
H          4.44898       -2.16353        0.38529
H          3.58903        0.22074       -1.56077
H          3.56425       -1.55396       -1.88466
H          2.04866       -0.61406       -1.94915
H          2.28298       -0.11408        0.39569
H          2.43251        3.80217        0.73495
H          2.51192        3.70621       -1.02398
H          0.36635        2.85988       -0.12217
H          1.23010        1.64934       -1.07162
H          1.31705        1.74337        1.86020
H          0.39147        0.74866        0.97634
H          4.53664        2.88460       -0.25965
H          3.85660        1.91176        0.85272
C          2.50162        3.10078       -0.11282
C          1.25880        2.22111       -0.13910
N          3.72935        2.29771       -0.07780
N          1.27479        1.25508        0.96858
