39
1sa1msa1dma1tma_29.log	Energy: -1050486.2133667
S          0.12112       -1.96090        0.11271
O         -0.25790       -1.17891        1.30358
O          0.61450       -0.84141       -0.99105
O          1.30329       -2.80217        0.25856
O         -1.05280       -2.61703       -0.51469
H         -2.35777       -1.58182       -0.37307
S         -0.58056        2.27520       -0.08987
O         -1.15782        3.54956       -0.50300
O          0.89519        2.17632       -0.11811
O         -1.17702        1.09606       -0.84844
H         -0.05029       -0.09241       -1.01684
C         -1.05208        1.98925        1.61277
H         -0.58732        2.76675        2.22054
H         -2.13832        2.06507        1.68989
H         -0.70070        0.99507        1.89624
N         -3.00783       -0.76594       -0.22903
C         -3.49431       -0.79172        1.16521
C         -4.06373       -0.75981       -1.25882
H         -2.38227        0.06652       -0.37428
H         -4.11506       -1.67684        1.31390
H         -2.62185       -0.83828        1.81793
H         -4.07901        0.10890        1.36285
H         -4.66258       -1.66789       -1.17210
H         -4.69619        0.11936       -1.12539
H         -3.59045       -0.72118       -2.23978
N          3.09326        0.04811       -0.15218
C          2.89427        0.20908        1.31425
H          2.24725        1.07250        1.46582
H          2.40837       -0.68933        1.69608
H          3.86912        0.35423        1.78533
C          3.88717       -1.16873       -0.46648
H          3.35718       -2.03490       -0.06908
H          3.97247       -1.26072       -1.54961
H          4.87811       -1.06500       -0.01901
C          3.67658        1.26763       -0.76745
H          3.76622        1.10728       -1.84228
H          3.00593        2.10367       -0.57413
H          4.66428        1.43708       -0.33266
H          2.13894       -0.10572       -0.54888
