36
1sa1msa1ma1tma_112.log	Energy: -1025806.3958768
S         -0.51369       -1.33658       -0.13237
O         -0.48986       -0.30879        0.91809
O          0.56433       -2.33843        0.00997
O         -1.86151       -1.91487       -0.32800
O         -0.25671       -0.58183       -1.53482
H         -2.84679       -0.67148        0.05485
H          0.66750       -0.24126       -1.52179
S          3.02695        0.11256        0.16657
O          2.77314        1.17485        1.12067
O          2.33637        0.18012       -1.13001
O          2.79491       -1.30720        0.80823
H          1.90922       -1.72482        0.52548
C          4.77309        0.02068       -0.14495
H          5.07183        0.97879       -0.57110
H          5.27716       -0.15113        0.80591
H          4.95874       -0.79351       -0.84435
N         -0.47292        2.63724        0.40391
H         -0.19231        3.30696        1.11300
C          0.20383        2.94837       -0.85698
H          1.29904        2.91131       -0.79510
H         -0.10811        2.22582       -1.61758
H         -0.09644        3.94324       -1.20102
H         -0.15906        1.72515        0.73254
N         -3.55823        0.10221        0.17353
C         -3.21047        1.16402       -0.81051
H         -2.29734        1.66632       -0.47332
H         -3.05651        0.69527       -1.78295
H         -4.03271        1.88258       -0.85514
C         -4.86843       -0.52238       -0.11811
H         -4.84622       -0.92258       -1.13211
H         -5.03755       -1.33582        0.58811
H         -5.65690        0.22770       -0.02542
C         -3.46645        0.60490        1.56675
H         -3.65673       -0.22120        2.25258
H         -2.45817        0.98706        1.72035
H         -4.20726        1.39547        1.70767
