26
1sa1msa1dma_29.log	Energy: -940996.6077220
S         -0.83934        1.15936       -0.03234
O         -0.68586       -0.15545       -0.73609
O          0.08431        2.18023       -0.49393
O         -2.27297        1.54458        0.00426
O         -0.53370        0.83938        1.51393
H          0.37732        0.46152        1.56493
S          2.68449       -0.57287        0.05773
O          3.81073       -1.47572        0.12387
O          1.90178       -0.33592        1.27944
O          1.71277       -1.10377       -1.07374
H          0.78477       -0.72311       -0.96929
C          3.21331        1.00713       -0.56233
H          3.90822        1.41894        0.17065
H          3.71152        0.84284       -1.51761
H          2.33322        1.64518       -0.67057
N         -3.64333       -0.68193        0.10375
C         -2.96407       -1.54367        1.10610
C         -3.63109       -1.24108       -1.27134
H         -4.60149       -0.50014        0.39933
H         -1.93813       -1.69476        0.77099
H         -2.95316       -1.02434        2.06390
H         -3.49054       -2.49599        1.18761
H         -2.58866       -1.30533       -1.58412
H         -4.10437       -2.22433       -1.27305
H         -4.16822       -0.55985       -1.93111
H         -3.13465        0.26806        0.07943
