36
1sa1msa2dma_30.log	Energy: -1025825.9353670
S          1.81320        0.88494       -0.77378
O          2.46684        2.15840       -0.99666
O          0.47789        0.95085       -1.65511
O          2.57079       -0.31817       -1.22764
O          1.34371        0.65843        0.63323
H          2.38923       -1.48999       -0.24955
H         -0.10896        1.48435        0.88299
S         -2.18779       -0.90851       -0.33711
O         -2.69553        0.48201       -0.52069
O         -1.89696       -1.22562        1.07544
O         -1.04223       -1.20438       -1.24937
H         -0.05240        0.10865       -1.56954
C         -3.51254       -1.97854       -0.86633
H         -4.38245       -1.77327       -0.24231
H         -3.72665       -1.76398       -1.91324
H         -3.18624       -3.01152       -0.74299
N         -0.99806        2.03854        0.91594
C         -0.71489        3.40090        0.41987
C         -1.56944        1.96329        2.27496
H         -1.65553        1.54264        0.26521
H         -0.00784        3.88972        1.09179
H         -0.27249        3.31635       -0.57288
H         -1.64607        3.96798        0.37359
H         -0.85459        2.36984        2.99266
H         -2.49815        2.53558        2.30738
H         -1.77572        0.91346        2.48959
N          2.36045       -2.26935        0.49292
C          0.94813       -2.59377        0.81956
C          3.14979       -1.79774        1.65448
H          2.81173       -3.08040        0.07246
H          0.47748       -1.70930        1.24612
H          0.41970       -2.83372       -0.10236
H          0.92053       -3.42669        1.52476
H          2.69239       -0.87022        1.99947
H          3.13904       -2.55518        2.44028
H          4.17141       -1.59847        1.32997
