30
1sa1msa2ma_121.log	Energy: -976481.8635319
S         -1.61135        0.65792        0.32976
O         -2.83205        0.66701        1.13060
O         -0.33225        0.59417        1.06417
O         -1.61871       -0.70311       -0.52551
O         -1.57168        1.77242       -0.67700
H         -2.58004       -0.90465       -0.78727
H         -0.11468        2.19291       -0.86943
S          2.78749       -0.89241        0.00621
O          2.43571        0.00455       -1.08971
O          3.44441       -0.34988        1.18228
O          3.78682       -2.00461       -0.62969
H          4.60857       -1.98969       -0.11817
C          1.38853       -1.87950        0.43802
H          1.00795       -2.34386       -0.47138
H          1.71262       -2.61811        1.17059
H          0.64511       -1.18450        0.84646
N          0.94401        2.41655       -0.91025
H          1.43211        1.51149       -0.99827
C          1.37563        3.10488        0.32966
H          2.45387        3.26538        0.30818
H          0.85032        4.05642        0.40993
H          1.10038        2.46099        1.16436
H          1.14189        2.96736       -1.74213
N         -4.23185       -1.10331       -0.90561
H         -4.54289       -0.15252       -0.72354
C         -4.63517       -1.97959        0.20098
H         -5.72210       -2.05947        0.32353
H         -4.22645       -2.97955        0.03462
H         -4.20333       -1.57984        1.12050
H         -4.63853       -1.40234       -1.78546
