33
1sa1msa1a1tma_39.log	Energy: -1001153.5345621
S         -0.87922       -0.87646       -0.63735
O          0.40505       -0.78857       -1.37261
O         -2.05700       -1.14778       -1.46348
O         -0.76329       -2.09145        0.35711
O         -1.07955        0.35426        0.20802
H          0.16438       -2.09392        0.84147
H         -2.53137        0.66156        0.27252
S          3.21111        0.56965        0.06797
O          3.77221       -0.75423       -0.18676
O          2.61736        0.78929        1.38518
O          2.20805        0.97703       -1.07280
H          1.45205        0.29355       -1.17642
C          4.45813        1.80360       -0.21145
H          4.86756        1.66312       -1.21130
H          4.00019        2.78639       -0.10425
H          5.22618        1.65049        0.54722
N          1.55071       -2.08913        1.55286
H          2.29328       -2.21738        0.86634
H          1.65761       -2.79742        2.27160
H          1.72733       -1.17502        1.96936
N         -3.60178        0.85964        0.34139
C         -4.05200        1.28415       -1.00478
H         -3.52705        2.20099       -1.27551
H         -3.78686        0.49587       -1.70974
H         -5.13126        1.45838       -0.99135
C         -4.23231       -0.41840        0.75153
H         -4.00876       -1.16496       -0.01091
H         -3.79339       -0.73469        1.69859
H         -5.31029       -0.27470        0.86223
C         -3.77885        1.91864        1.35639
H         -3.35744        1.57351        2.30120
H         -3.24529        2.81273        1.03231
H         -4.84212        2.14049        1.47940
