27
1sa1msa1a1ma_128.log	Energy: -951825.4382584
S          2.45403        0.16277        0.70093
O          1.71985        1.26520        1.28112
O          3.71437       -0.27117        1.26926
O          1.54617       -1.13074        0.64922
O          2.66063        0.51996       -0.82649
H          0.64065       -0.91428        0.27299
H          3.33066       -0.14151       -1.22298
S         -1.69159        0.49663       -0.40248
O         -0.75951       -0.65500       -0.46501
O         -2.29208        0.68090        0.95519
O         -2.76532        0.39104       -1.43813
H         -4.23243       -0.11205       -0.63660
C         -0.75484        1.96161       -0.76035
H          0.01557        2.06058        0.00694
H         -0.30063        1.83219       -1.74288
H         -1.43926        2.80977       -0.75228
N          4.47908       -1.28153       -1.53706
H          5.22885       -1.03179       -2.17269
H          4.09772       -2.17645       -1.82554
H          4.86733       -1.38947       -0.60207
N         -4.59798       -0.40393        0.30306
H         -3.87907        0.08681        0.90025
C         -4.48241       -1.87206        0.46828
H         -4.73650       -2.14423        1.49214
H         -5.14529       -2.37479       -0.23522
H         -3.44711       -2.14459        0.26133
H         -5.53654       -0.05108        0.47060
