36
1sa1msa2dma_70.log	Energy: -1025816.9048469
S          0.32307       -1.86506        0.12508
O          0.20121       -0.83186       -0.96063
O         -0.79742       -2.79185        0.15522
O          1.68209       -2.42556        0.14752
O          0.29383       -1.00239        1.50265
H         -0.53539       -0.47669        1.51176
S         -2.77189        0.55936       -0.09731
O         -3.72813        1.62534       -0.29099
O         -1.76634        0.71496        0.97234
O         -2.00811        0.33205       -1.45674
H         -1.14121       -0.18681       -1.29906
C         -3.61342       -0.98161        0.17643
H         -4.13529       -0.89605        1.13033
H         -4.32118       -1.12295       -0.64034
H         -2.86890       -1.78172        0.20289
N          3.01885       -0.02261       -0.25536
C          3.25827        0.03876       -1.71082
C          4.20192        0.25855        0.57545
H          2.23848        0.69517       -0.01520
H          4.02305       -0.68747       -1.99198
H          2.31874       -0.20083       -2.20922
H          3.58505        1.04531       -1.98056
H          4.99753       -0.45234        0.34463
H          4.54977        1.27497        0.37930
H          3.92320        0.16313        1.62538
H          2.63781       -0.96665       -0.03124
N          1.11007        1.87369        0.28879
C          0.98952        2.83165       -0.80947
C          1.29464        2.51483        1.58971
H          0.25075        1.32857        0.32660
H          1.93600        3.36895       -0.93484
H          0.76728        2.29332       -1.73409
H          0.19414        3.56995       -0.63852
H          2.24986        3.05091        1.60369
H          0.49356        3.22932        1.82241
H          1.31289        1.74711        2.36704
