38
1sa1msa1dma1eda_164.log	Energy: -1060552.6055221
S         -2.19260        1.00333       -0.73298
O         -1.51575       -0.42492       -1.08475
O         -2.38787        1.74752       -1.96506
O         -3.42083        0.53880       -0.03826
O         -1.25374        1.66506        0.22011
H         -2.93600       -0.68370        0.87780
H          0.16052        2.29629       -0.40389
S          1.88827       -1.26505       -0.62046
O          0.99004       -1.93129        0.34075
O          3.05665       -0.58726       -0.03481
O          1.11348       -0.32299       -1.52562
H         -0.55083       -0.35013       -1.31112
C          2.50849       -2.52401       -1.72236
H          1.65950       -3.01253       -2.20072
H          3.14756       -2.04434       -2.46359
H          3.07923       -3.23551       -1.12494
N         -2.60087       -1.42441        1.57010
C         -1.40738       -0.89840        2.28646
C         -2.34153       -2.70674        0.86814
H         -3.37071       -1.53978        2.22824
H         -0.57183       -0.89713        1.58491
H         -1.62188        0.11636        2.62001
H         -1.17784       -1.55292        3.12929
H         -1.50373       -2.54721        0.19052
H         -2.09156       -3.47391        1.60284
H         -3.23312       -2.98560        0.30662
H          1.14031        0.78356        1.27103
H          0.97346        2.29981        2.15369
H          2.27240        3.51090        0.55481
H          3.08736        2.03042       -0.00581
H          1.26364        2.98259       -1.49415
H          1.24895        1.32828       -1.17280
H          2.58234        1.13747        3.34269
H          3.35216        0.62336        1.98939
C          1.68062        1.68565        1.58753
C          2.14176        2.44805        0.34392
N          2.85162        1.40665        2.40389
N          1.15093        2.28843       -0.75982
