36
1sa1msa2dma_21.log	Energy: -1025831.3663988
S         -0.56013       -1.92509       -0.30951
O         -1.90158       -2.52542       -0.30154
O         -0.66548       -0.89792       -1.56369
O         -0.29757       -1.07214        0.87158
O          0.57364       -2.83010       -0.58865
H          1.92952       -1.83409        0.05743
S          0.64518        2.05109       -0.08636
O          1.34862        2.02494        1.20028
O         -0.83773        2.01738       -0.01406
O          1.17367        0.99270       -1.02949
H          0.02356       -0.19248       -1.47044
C          1.03577        3.59935       -0.88451
H          0.67304        4.40384       -0.24412
H          2.11780        3.66124       -1.00162
H          0.53936        3.62305       -1.85452
N         -2.81635        0.16744        0.31846
C         -3.11126        0.27290        1.76296
C         -3.82265        0.77130       -0.57588
H         -1.90310        0.64825        0.15415
H         -4.05467       -0.23074        1.97937
H         -2.28975       -0.20467        2.29628
H         -3.17085        1.32786        2.03287
H         -4.78922        0.29069       -0.41636
H         -3.89057        1.83867       -0.36284
H         -3.49593        0.62082       -1.60457
H         -2.68213       -0.83154        0.07426
N          2.55487       -1.02904        0.27762
C          3.83463       -1.18009       -0.44103
C          2.68382       -0.87088        1.74368
H          2.04709       -0.20140       -0.10964
H          4.35342       -2.06711       -0.07447
H          3.62817       -1.28772       -1.50589
H          4.44674       -0.29342       -0.27055
H          3.20004       -1.74204        2.15093
H          3.23820        0.04422        1.95212
H          1.67835       -0.78919        2.15228
