33
1sa1msa1ma1dma_167.log	Energy: -1001149.6958169
S          0.45699       -1.43901        0.25121
O          0.72877       -0.47869       -0.83416
O         -0.78343       -2.21653        0.03984
O          1.63038       -2.25651        0.60904
O          0.21666       -0.55532        1.58236
H          3.00973       -1.29964        0.32779
H         -0.64689       -0.09124        1.47789
S         -2.95786        0.50388       -0.24642
O         -2.73752        1.52863       -1.24682
O         -2.18031        0.57788        1.00002
O         -2.80973       -0.93257       -0.87106
H         -1.99007       -1.43748       -0.53087
C         -4.68067        0.48839        0.19043
H         -4.91157        1.46508        0.61651
H         -5.25720        0.31849       -0.71872
H         -4.84693       -0.30527        0.91795
N          3.69871       -0.59640       -0.03587
H          3.24706        0.39078        0.12840
C          3.88305       -0.80870       -1.48975
H          4.56611       -0.05586       -1.88572
H          4.27949       -1.80734       -1.67393
H          2.90129       -0.71262       -1.95472
H          4.57165       -0.68172        0.47871
N          2.33554        1.74052        0.18745
C          2.70916        2.78944       -0.75931
C          2.12111        2.24237        1.54499
H          1.48127        1.28416       -0.14102
H          3.67990        3.21188       -0.47934
H          2.79068        2.36261       -1.76235
H          1.97487        3.60594       -0.78946
H          3.06180        2.63553        1.94510
H          1.37118        3.04455        1.57637
H          1.77740        1.42145        2.17775
