33
1sa1msa1a1tma_51.log	Energy: -1001153.6050879
S          1.60342       -1.48717       -0.04223
O          0.51092       -2.32864       -0.59945
O          2.59318       -1.08316       -1.03906
O          1.09166       -0.39913        0.80730
O          2.37583       -2.42995        1.03432
H          2.79357       -3.15577        0.55120
S         -2.30126       -0.28868       -0.05865
O         -1.45627        0.39491       -1.04101
O         -2.46676        0.35450        1.23804
O         -1.84761       -1.77662        0.10877
H         -0.87104       -1.96246       -0.17195
C         -3.91537       -0.53054       -0.76399
H         -4.36831        0.45417       -0.88302
H         -3.79924       -1.02724       -1.72670
H         -4.50019       -1.14080       -0.07591
N          0.05936        1.64275        2.63234
H         -0.85421        1.27942        2.36165
H         -0.01631        1.96856        3.59040
H          0.67763        0.83500        2.62730
N          0.99075        2.04091       -0.50192
C          1.18464        1.72865       -1.94289
H          1.89884        0.90804       -2.02449
H          0.22573        1.42296       -2.35831
H          1.55956        2.62441       -2.44307
C         -0.03071        3.09734       -0.29109
H         -0.96224        2.76020       -0.74331
H         -0.15913        3.21977        0.78480
H          0.32105        4.01885       -0.76100
C          2.27560        2.37833        0.16236
H          2.07039        2.53016        1.22203
H          2.96091        1.54148        0.02751
H          2.67993        3.28488       -0.29360
H          0.66531        1.16838       -0.04023
