38
1sa1msa1dma1eda_372.log	Energy: -1060530.9220328
S         -0.01427       -0.30211       -0.71341
O          1.29073        0.03750       -1.27770
O         -1.15181       -0.18515       -1.64591
O         -0.00222       -1.63480       -0.03222
O         -0.24010        0.78356        0.43990
H          1.36928       -2.19226        0.29273
H         -1.17187        0.72222        0.76387
S         -3.99907        0.28576        0.26720
O         -4.69617        1.50355       -0.09033
O         -2.82278        0.39299        1.14410
O         -3.60995       -0.55019       -1.01219
H         -2.63592       -0.41911       -1.27015
C         -5.14535       -0.84251        1.02087
H         -5.52318       -0.35908        1.92215
H         -5.95460       -1.02178        0.31313
H         -4.61817       -1.76500        1.26065
N          2.79535        2.63374       -0.23238
C          2.59355        2.51115        1.19234
C          4.18628        2.67750       -0.61944
H          2.28272        1.91532       -0.73414
H          2.94386        3.41742        1.70040
H          1.53096        2.37937        1.40250
H          3.13892        1.65545        1.64749
H          4.64702        3.60054       -0.24765
H          4.78930        1.83375       -0.22431
H          4.27171        2.67652       -1.70936
H          4.11665       -2.98582       -0.60591
H          2.88615       -2.00682       -1.46406
H          4.79448       -0.60788       -0.54243
H          3.19520       -0.14348        0.03655
H          5.25349       -1.52094        1.58773
H          4.24495       -0.30986        2.02938
H          2.15435       -3.68880        0.37601
H          2.68743       -2.46640        1.39149
C          3.35843       -2.20455       -0.50134
C          3.95512       -0.92627        0.08577
N          2.32047       -2.68829        0.45168
N          4.31004       -1.16307        1.48625
