28
1sa1msa1eda_105.log	Energy: -975728.2787572
S          1.50218       -1.72748       -0.13817
O          2.06346       -3.04237       -0.37768
O          0.18240       -1.44835       -0.77038
O          1.16615       -1.66712        1.46302
O          2.40379       -0.57750       -0.38120
H          1.54061       -2.46537        1.85858
H          1.45825        0.73513       -0.91392
S         -2.53930        0.17000       -0.00765
O         -2.86064        0.46118       -1.39560
O         -1.51501        1.03333        0.60792
O         -2.15140       -1.33730        0.19637
H         -1.20395       -1.50276       -0.15221
C         -4.00479        0.22722        0.98793
H         -4.40397        1.23859        0.90722
H         -4.71262       -0.49877        0.58828
H         -3.73515       -0.00728        2.01697
H          1.12618        2.38798        1.42308
H          1.96725        3.87693        0.98457
H          0.30319        3.48635       -0.69902
H          1.90384        3.15824       -1.42834
H         -0.07495        1.19262       -0.41946
H          0.36921        1.40325       -1.99497
H          3.68921        2.43246        1.46489
H          3.07058        1.17519        0.61325
C          1.83030        2.82971        0.69898
C          1.17940        2.83407       -0.67915
N          3.13620        2.19000        0.65234
N          0.71479        1.46517       -1.03832
