35
1sa1msa1ma1eda_254.log	Energy: -1035881.9123336
S          0.03577       -1.00056       -0.55468
O          0.16704       -1.62772        0.78286
O         -0.34243        0.44591       -0.42533
O          1.20245       -1.18809       -1.41050
O         -1.17468       -1.71733       -1.29829
H         -2.01095       -1.54096       -0.80365
S         -3.74748        0.46568        0.39064
O         -3.99021        0.74862        1.79066
O         -3.40515       -0.91348        0.01647
O         -2.66873        1.44548       -0.21022
H         -1.74300        1.01612       -0.27192
C         -5.16852        0.95994       -0.55520
H         -6.00603        0.35480       -0.20676
H         -5.35372        2.01715       -0.36613
H         -4.96605        0.77651       -1.60972
N          2.72873       -1.06073        1.43837
H          1.72656       -1.36929        1.36063
H          2.72978       -0.05349        1.09196
C          3.59806       -1.92955        0.60430
H          4.57735       -1.45859        0.52141
H          3.66321       -2.91783        1.06027
H          3.12773       -2.00591       -0.37624
H          3.01375       -1.06506        2.41447
H          4.77731        2.90345       -0.30472
H          5.34479        1.65387       -1.41157
H          2.93451        2.16021       -1.67981
H          3.23055        0.46025       -1.31653
H          2.43654        2.40755        0.73135
H          1.43985        1.33633        0.00661
H          6.22878        1.08149        0.63748
H          4.83954        1.31745        1.44779
C          4.71627        1.82625       -0.53295
C          3.28043        1.47000       -0.89891
N          5.22098        0.99334        0.56456
N          2.41215        1.49271        0.28722
