30
1sa1msa2ma_136.log	Energy: -976478.7358804
S         -0.64787       -0.74092       -0.54404
O         -1.84426       -1.13404       -1.31095
O          0.10108        0.38307       -1.14399
O         -0.96054       -0.50732        0.89234
O          0.29573       -2.02470       -0.61762
H         -2.58776       -1.00368        1.20177
H          1.19080       -1.77772       -0.28105
S          3.32853        0.21056        0.14470
O          4.40671        0.24086       -0.82106
O          2.62890       -1.06288        0.36653
O          2.26695        1.33677       -0.15929
H          1.40522        0.95952       -0.54417
C          3.94047        0.77585        1.71412
H          4.71207        0.07158        2.02647
H          4.36282        1.77091        1.57515
H          3.11404        0.79065        2.42367
N         -3.47894       -1.39889        0.81178
H         -3.22502       -1.39214       -0.20002
C         -4.68095       -0.59276        1.13300
H         -5.54679       -1.02850        0.63372
H         -4.83460       -0.60066        2.21242
H         -4.51818        0.43492        0.78333
H         -3.55822       -2.36824        1.11259
N         -4.01500        2.45370        0.03717
H         -4.66329        2.78770       -0.66895
C         -2.67529        2.28349       -0.54195
H         -2.25531        3.19558       -0.98503
H         -1.98744        1.93265        0.23074
H         -2.70758        1.51361       -1.31629
H         -3.99567        3.16241        0.76361
