38
1sa1msa1dma1eda_263.log	Energy: -1060547.4090346
S          0.26387        1.00652        0.82823
O          0.49336       -0.48954        0.94190
O          0.45122        1.43794       -0.56684
O         -1.00454        1.39166        1.43594
O          1.39768        1.67442        1.71990
H          2.27409        1.33745        1.41370
S          3.71231       -0.42083       -0.44581
O          4.93532       -1.15913       -0.66475
O          3.63531        0.50006        0.69494
O          2.52969       -1.46900       -0.33266
H          1.74586       -1.08305        0.17609
C          3.29990        0.49821       -1.91120
H          4.08433        1.24340       -2.04983
H          3.27771       -0.19881       -2.74889
H          2.32963        0.97296       -1.74912
N         -2.07412       -1.42855        0.62052
C         -2.22709       -2.80487        0.11643
C         -2.88349       -1.12884        1.82401
H         -1.07018       -1.22746        0.82297
H         -3.28332       -2.99397       -0.08240
H         -1.64816       -2.91362       -0.80162
H         -1.86276       -3.51205        0.86321
H         -3.93684       -1.16257        1.54376
H         -2.65474       -1.86459        2.59737
H         -2.60750       -0.13156        2.16625
H         -2.30782       -0.75411       -0.16098
H         -5.02101        0.94264       -2.29866
H         -5.56162        1.40413       -0.68483
H         -3.38011        2.41428       -1.31719
H         -3.29167        1.47293        0.17180
H         -2.47372        0.39987       -2.43358
H         -1.45980        0.96563       -1.28828
H         -5.89446       -0.87214       -0.79735
H         -4.44009       -1.18201       -1.45411
C         -4.81161        0.81767       -1.22340
C         -3.43676        1.39617       -0.90965
N         -4.92267       -0.58126       -0.79289
N         -2.37275        0.52559       -1.42930
