23
1sa1msa1ma_12.log	Energy: -916335.6748973
S         -2.21841       -0.44776        0.12997
O         -1.03717       -0.74030       -0.74220
O         -2.38931       -1.37269        1.23342
O         -2.26291        0.99666        0.44189
O         -3.50252       -0.62531       -0.85046
H         -3.73568       -1.56331       -0.86542
S          2.13878       -0.42130        0.02913
O          1.97694        0.17366        1.34811
O          1.96946        0.50003       -1.10949
O          1.21929       -1.67345       -0.15940
H          0.24743       -1.37922       -0.34078
C          3.72803       -1.19560       -0.09706
H          4.47474       -0.41244        0.03596
H          3.80363       -1.94006        0.69523
H          3.81319       -1.65516       -1.08095
N         -0.15948        2.26249       -0.61001
H          0.51612        1.55191       -0.95251
H         -0.43937        2.84847       -1.39347
C          0.45803        3.04851        0.48608
H         -0.27774        3.74635        0.88433
H          0.77175        2.34718        1.25885
H          1.32763        3.58321        0.10473
H         -1.01770        1.75429       -0.25071
