27
1sa1msa1a1ma_43.log	Energy: -951833.3725760
S          2.25269       -0.70253       -0.12442
O          3.29751       -0.73098       -1.13137
O          2.60888       -0.05656        1.15457
O          0.92393       -0.20257       -0.58845
O          1.91359       -2.26169        0.23046
H          2.70146       -2.78136        0.02323
S         -2.28265       -0.44832       -0.05035
O         -2.48609        0.84977       -0.68742
O         -1.88390       -0.42171        1.36292
O         -1.29617       -1.33705       -0.88106
H         -0.33757       -0.96776       -0.81186
C         -3.75673       -1.42084       -0.20459
H         -4.54641       -0.88407        0.32167
H         -3.99170       -1.51706       -1.26419
H         -3.57519       -2.39356        0.25111
N          0.34661        1.27788        1.97300
H         -0.41548        0.58504        1.91463
H          0.14444        2.01701        1.21254
H          0.37283        1.69373        2.89896
H          1.25097        0.79874        1.75819
N         -0.29738        2.94974       -0.12468
H         -1.03896        2.37323       -0.52507
C          0.81196        3.08651       -1.08162
H          0.51709        3.58438       -2.01250
H          1.62269        3.65775       -0.62187
H          1.18754        2.09008       -1.31942
H         -0.71034        3.85639        0.07277
