38
1sa1msa1dma1eda_329.log	Energy: -1060540.9462706
S          0.23709       -0.71407        0.80939
O         -0.92565       -0.77839        1.69885
O          1.49513       -1.22731        1.39023
O         -0.03804       -1.25990       -0.54175
O          0.46072        0.87977        0.60783
H         -1.80015       -1.24411       -0.72089
H          1.34309        1.02505        0.18757
S          4.10479        0.24798       -0.29996
O          5.06836        0.80205        0.62963
O          2.88768        1.02804       -0.57528
O          3.69965       -1.22064        0.09752
H          2.81880       -1.24985        0.61056
C          4.90715       -0.07366       -1.85157
H          5.27970        0.88158       -2.22255
H          5.73166       -0.76273       -1.66913
H          4.17716       -0.50346       -2.53642
N         -2.39092        1.66313       -0.02892
C         -2.74996        2.06913        1.33044
C         -2.92879        2.55050       -1.05824
H         -1.37118        1.64413       -0.07729
H         -3.83983        2.05062        1.44755
H         -2.29670        1.37182        2.03872
H         -2.40963        3.08713        1.56451
H         -4.01654        2.43775       -1.09896
H         -2.68580        3.60651       -0.87305
H         -2.52161        2.26604       -2.03189
H         -5.25840       -1.94061        0.36447
H         -5.96397       -1.74048       -1.23911
H         -3.67177       -2.60646       -1.39988
H         -3.81183       -1.00723       -2.16616
H         -2.74227        0.06516       -0.26764
H         -2.74731       -1.39737        0.58065
H         -6.47144        0.24616       -0.23028
H         -5.02048        0.42523        0.48816
C         -5.20787       -1.33973       -0.55825
C         -3.85031       -1.54376       -1.21561
N         -5.47930        0.07842       -0.34781
N         -2.75776       -1.02174       -0.37138
