36
1sa1msa2dma_100.log	Energy: -1025814.4043723
S         -0.19665       -1.54557       -0.42006
O         -0.13603       -0.63114        0.77021
O          0.87960       -2.52413       -0.44202
O         -1.56879       -2.05879       -0.59505
O         -0.01339       -0.57136       -1.69451
H          0.83784       -0.08668       -1.57873
S          3.06342        0.55534        0.21947
O          4.07047        1.53606        0.55635
O          2.22334        0.79518       -0.96435
O          2.12295        0.38119        1.47807
H          1.24339       -0.05347        1.21986
C          3.81246       -1.04652        0.03881
H          4.48710       -0.98925       -0.81632
H          4.36536       -1.26058        0.95343
H          3.01972       -1.77910       -0.13259
N         -3.17947       -0.24422        0.63881
C         -4.57594       -0.40017        0.19448
C         -2.98684       -0.34997        2.09948
H         -2.58369       -0.96671        0.16406
H         -5.19261        0.38150        0.64328
H         -4.61079       -0.31774       -0.89244
H         -4.95058       -1.38036        0.49403
H         -3.52010        0.46432        2.59514
H         -3.36970       -1.31012        2.44998
H         -1.91688       -0.28848        2.29653
H         -2.82037        0.71077        0.31111
N         -2.29742        2.22625       -0.29554
C         -2.20668        2.03809       -1.74938
C         -0.99147        2.53877        0.30246
H         -2.93548        2.99349       -0.10416
H         -1.59658        1.15443       -1.95540
H         -3.20681        1.88016       -2.16329
H         -1.74982        2.90055       -2.25373
H         -0.32246        1.68898        0.15954
H         -0.53074        3.42928       -0.14523
H         -1.11132        2.70125        1.37654
