27
1sa1msa1a1ma_21.log	Energy: -951839.7355220
S          2.10478       -0.77095        0.03434
O          1.44861       -0.41800       -1.35807
O          3.50157       -1.00673       -0.18199
O          1.69941        0.25812        0.99640
O          1.43332       -2.13308        0.44288
H          0.44056       -2.02329        0.53886
S         -1.92474       -0.64734       -0.05426
O         -2.55864        0.24541        0.94105
O         -1.15372       -1.75808        0.55740
O         -1.09421        0.12235       -1.03964
H          0.46882       -0.21706       -1.25880
C         -3.24075       -1.39724       -0.98568
H         -3.85800       -1.96751       -0.29157
H         -3.81913       -0.60306       -1.45755
H         -2.79408       -2.05196       -1.73395
N         -0.45201        1.73551        1.93563
H          0.35097        1.10159        1.78583
H         -1.32409        1.17875        1.84140
H         -0.38953        2.19751        2.83708
H         -0.45136        2.42135        1.10065
N         -0.42540        3.02268       -0.46726
H         -0.82334        2.19808       -0.92149
C          0.95600        3.23205       -0.92602
H          1.03796        3.35781       -2.01120
H          1.37101        4.11847       -0.43983
H          1.56013        2.37069       -0.63284
H         -1.01098        3.81516       -0.71047
