32
1sa1msa1a1eda_10.log	Energy: -1011241.1691617
S          2.90955       -0.12025       -0.11881
O          2.87636       -1.42653       -0.79124
O          2.74156        1.03546       -1.02030
O          2.02680       -0.05494        1.06909
O          4.38936        0.03333        0.53517
H          5.03482        0.05548       -0.18440
S         -2.35907       -1.07504       -0.06920
O         -1.23697       -0.58748       -0.93030
O         -2.99952       -0.00511        0.71145
O         -1.91979       -2.24594        0.74638
C         -3.59144       -1.71046       -1.19136
H         -3.93066       -0.89025       -1.82444
H         -3.13767       -2.49850       -1.79218
H         -4.41667       -2.10333       -0.59706
N          0.74985       -2.46875        0.80130
H          1.06060       -3.25829        1.35984
H         -0.30750       -2.42314        0.75912
H          1.13411       -1.57996        1.18529
H          1.16733       -2.52169       -0.13367
H         -0.01042        3.79682       -0.46645
H         -0.75311        2.92001       -1.82550
H         -2.43565        3.91879       -0.14920
H         -2.61872        2.18537       -0.44252
H         -2.00104        3.38818        2.02708
H         -2.26345        1.79262        1.66432
H          1.08826        1.65731       -0.70148
H          0.15738        1.70301        0.68845
C         -0.62087        2.93284       -0.74164
C         -1.96300        2.94208       -0.00127
N          0.11897        1.71833       -0.33817
N         -1.74807        2.63029        1.40835
H         -0.39117        0.84621       -0.61572
