41
1sa1msa1tma1eda_26.log	Energy: -1085218.9382665
S          2.72418       -0.94754       -0.09062
O          2.51394       -0.20613        1.15229
O          2.47753       -2.39411       -0.03993
O          2.05477       -0.30320       -1.25684
O          4.32646       -0.77467       -0.36543
H          4.57637       -1.40924       -1.04977
S         -2.93477        0.68762       -0.05539
O         -2.38442        1.30239        1.16229
O         -3.37241       -0.73141        0.12658
O         -2.01098        0.81696       -1.22409
C         -4.42065        1.57203       -0.49126
H         -5.12643        1.47414        0.33382
H         -4.15960        2.61852       -0.65011
H         -4.82814        1.13291       -1.40178
H         -0.18621        2.95225        0.96438
H          0.64617        1.44019        1.37271
H          2.11952        3.41190        1.84016
H          2.79550        2.31483        0.63628
H          1.61131        4.94147        0.10505
H          3.00691        4.30563       -0.46346
H         -0.48798        1.53735       -0.88521
H          0.74512        2.63909       -1.28911
C          0.66141        2.30937        0.71660
C          1.99511        3.03791        0.81649
N          0.48770        1.85121       -0.68500
N          2.05222        4.08385       -0.20935
H          1.13380        1.05190       -0.90448
N         -1.27338       -2.37864        0.18611
C         -0.46267       -1.72846        1.25020
H         -0.28458       -0.69315        0.96351
H         -1.03340       -1.74293        2.17903
H          0.49039       -2.24822        1.35171
C         -1.61149       -3.77422        0.54002
H         -2.12567       -3.78249        1.50167
H         -2.26658       -4.18718       -0.22779
H         -0.69080       -4.35808        0.60203
C         -0.61406       -2.28827       -1.14555
H         -1.25381       -2.78176       -1.87823
H         -0.50954       -1.23546       -1.40393
H          0.37144       -2.75364       -1.08979
H         -2.16515       -1.81317        0.12929
