35
1sa1msa1ma1eda_218.log	Energy: -1035882.7601992
S          1.71121        0.01224       -0.06983
O          2.10889       -0.74308       -1.25455
O          0.25028        0.00289        0.23213
O          2.37945       -0.67669        1.19225
O          2.17062        1.43376       -0.08365
H          3.23124       -1.16775        0.88553
H          1.01256        2.38150        0.36335
S         -2.79711       -1.32732       -0.03713
O         -2.89231       -0.71771       -1.35706
O         -3.18621       -0.49554        1.10351
O         -1.36918       -1.94322        0.20045
H         -0.65310       -1.20951        0.21095
C         -3.75060       -2.82568       -0.00262
H         -4.79118       -2.54088       -0.16020
H         -3.40144       -3.47406       -0.80566
H         -3.62044       -3.29671        0.97112
N          4.49092       -1.82952        0.13202
H          4.90343       -2.66928        0.52385
C          5.50597       -0.80251       -0.13077
H          6.28393       -1.12948       -0.83049
H          5.00945        0.07739       -0.54607
H          5.97728       -0.51258        0.81116
H          4.01236       -2.08079       -0.73065
H         -0.92120        4.43900       -0.55524
H          0.07211        3.31729       -1.52177
H         -2.43677        2.70902       -1.43574
H         -1.35353        1.42412       -0.89842
H         -3.07831        3.02727        0.79384
H         -2.65232        1.44315        0.91726
H          0.70093        3.92841        0.96689
H         -0.44323        2.72708        1.24949
C         -0.55938        3.41020       -0.63694
C         -1.73037        2.41811       -0.65099
N          0.25213        3.10584        0.57360
N         -2.30924        2.37566        0.68943
