38
1sa1msa1dma1eda_165.log	Energy: -1060547.2983795
S         -1.16400       -0.34320       -0.03757
O         -1.59071       -1.63494        0.48822
O          0.06485       -0.39213       -0.89708
O         -2.27685        0.18183       -1.03662
O         -0.99053        0.71489        0.99615
H         -3.21017       -0.16662       -0.73529
H          0.48617        1.43945        0.80057
S          3.11707       -1.24432        0.16724
O          2.83258       -1.47301        1.57306
O          3.33278        0.16057       -0.23099
O          2.04621       -1.89990       -0.76486
H          1.16806       -1.34383       -0.79317
C          4.54309       -2.18249       -0.31951
H          4.34343       -3.23312       -0.11015
H          4.72234       -2.01841       -1.38135
H          5.37948       -1.82167        0.27955
N         -4.58921       -0.74504       -0.23843
C         -4.66540       -0.51897        1.20925
C         -4.62883       -2.16920       -0.58733
H         -5.35793       -0.26309       -0.69539
H         -3.79291       -0.98147        1.67675
H         -4.63275        0.55417        1.41111
H         -5.57772       -0.94422        1.65005
H         -3.73795       -2.64621       -0.17280
H         -5.52635       -2.66767       -0.19540
H         -4.60276       -2.27749       -1.67408
H          1.87413        3.10000       -1.22508
H          0.61888        1.86312       -1.49354
H         -0.38984        4.16417       -1.48586
H         -0.99246        3.16899       -0.15387
H          0.92757        5.36518        0.07454
H         -0.38659        5.04152        0.99314
H          2.12176        1.33810        0.34159
H          1.53306        2.71583        1.15363
C          0.96860        2.64315       -0.81591
C         -0.10800        3.68406       -0.54029
N          1.32429        1.98753        0.46643
N          0.37635        4.61691        0.48056
