27
1sa1msa1a1ma_87.log	Energy: -951830.3931296
S          1.34211        0.69952       -0.37851
O          0.51310        1.58232       -1.21174
O          1.44901        1.17239        1.02927
O          0.89220       -0.72906       -0.42188
O          2.78611        0.71150       -0.99472
H          3.39273        0.12660       -0.39361
S         -2.60324       -0.50565       -0.02168
O         -2.97492        0.38010       -1.11267
O         -2.27774        0.16489        1.25528
O         -1.46814       -1.49549       -0.41096
H         -0.49314       -1.09784       -0.42187
C         -3.91098       -1.66668        0.28160
H         -4.78871       -1.08930        0.57317
H         -4.09784       -2.21045       -0.64410
H         -3.60175       -2.34015        1.07994
N         -0.89777        2.52214        0.92388
H         -1.21117        3.42807        1.25596
H          0.01679        2.22166        1.32584
H         -1.58183        1.76110        1.12197
H         -0.70459        2.51204       -0.09381
N          4.10127       -0.83938        0.66012
H          5.09439       -0.67939        0.79492
C          3.82698       -2.24071        0.30800
H          4.15387       -2.95111        1.07580
H          2.75308       -2.34843        0.14453
H          4.33551       -2.47505       -0.62969
H          3.63315       -0.58790        1.52763
