41
1sa1msa1tma1eda_15.log	Energy: -1085219.7091305
S         -2.82534       -0.40892       -0.26084
O         -3.12596       -1.40775        0.77130
O         -3.20791        0.96902        0.06440
O         -1.43724       -0.52346       -0.77948
O         -3.69803       -0.83337       -1.57870
H         -4.63306       -0.76865       -1.34296
S          2.71720        0.26169       -0.34879
O          2.81196       -0.09612        1.08261
O          2.48420        1.71039       -0.59434
O          1.72179       -0.58240       -1.07437
C          4.30510       -0.09549       -1.08332
H          5.05304        0.52557       -0.59008
H          4.52466       -1.15284       -0.93072
H          4.24959        0.13636       -2.14693
H         -1.34478        1.89138        1.15115
H          0.39475        1.51704        1.34030
H         -0.14887        3.81149        2.20501
H          0.99575        3.85103        0.85544
H         -1.87407        4.45143        0.64514
H         -0.60792        5.41505        0.24637
H         -0.65149        1.00295       -0.85837
H         -0.74425        2.68833       -1.08263
C         -0.33199        2.16530        0.84666
C         -0.04220        3.63368        1.12650
N         -0.23819        1.93033       -0.61572
N         -0.92184        4.45361        0.29324
H          0.76715        1.93772       -0.88346
N          0.47938       -2.47944        0.49270
C         -0.55160       -3.40238       -0.04872
H         -1.52188       -2.91101       -0.00993
H         -0.29306       -3.64516       -1.07962
H         -0.56035       -4.30734        0.56339
C          1.80544       -3.14141        0.58691
H          2.09772       -3.47784       -0.40808
H          2.52417       -2.41231        0.96197
H          1.72504       -3.99247        1.26670
C          0.07857       -1.89908        1.80253
H          0.83162       -1.15978        2.07999
H         -0.90670       -1.44728        1.69207
H          0.03775       -2.70273        2.54138
H          0.60963       -1.68105       -0.16839
