32
1sa1msa1a1eda_24.log	Energy: -1011242.3707482
S         -1.56825        1.48085        0.29546
O         -0.98929        0.89064       -0.95872
O         -0.98532        2.81110        0.55133
O         -3.01442        1.36373        0.38723
O         -1.04185        0.50099        1.47870
H         -0.06142        0.43906        1.45592
S          2.53104       -0.42253        0.07353
O          2.89643        0.98071       -0.25564
O          2.21883       -1.25211       -1.11144
O          1.44909       -0.50262        1.10449
C          3.98417       -1.11644        0.83545
H          4.79692       -1.06629        0.11079
H          4.21786       -0.52855        1.72298
H          3.76822       -2.15123        1.10131
N          1.04540        2.63795       -1.28695
H          1.84057        2.06531       -0.90053
H          0.53221        3.09751       -0.51356
H          1.35111        3.29566       -1.99641
H          0.33991        1.96289       -1.63601
H         -1.56980       -3.47213       -1.19940
H         -0.89229       -3.61324        0.44363
H         -3.34903       -3.22648        0.55982
H         -2.49481       -1.82846        1.21204
H         -4.13839       -1.88073       -1.11756
H         -3.49057       -0.56729       -0.34241
H          0.34311       -2.02186       -1.12418
H         -0.99105       -1.01832       -0.99102
C         -1.38990       -2.94267       -0.26138
C         -2.70357       -2.38247        0.28995
N         -0.48084       -1.80873       -0.54886
N         -3.30084       -1.50048       -0.69974
H         -0.06529       -1.41023        0.30789
