32
1sa1msa1a1eda_316.log	Energy: -1011211.4507274
S         -1.17748       -1.42833       -0.61532
O         -0.40278       -0.45951       -1.38301
O         -2.21593       -2.19058       -1.26536
O         -0.19867       -2.47318        0.04517
O         -1.77234       -0.63560        0.60035
H          0.60866       -2.00471        0.40741
H         -2.51282       -1.21591        1.06378
S          2.81752       -0.26318        0.18734
O          4.11420       -0.86575       -0.01898
O          1.79079       -1.02315        0.92502
O          2.21584        0.11174       -1.23726
H          1.24182       -0.06619       -1.27824
C          2.98720        1.31267        0.97311
H          3.42279        1.12931        1.95648
H          3.66226        1.91084        0.36032
H          1.98518        1.76083        1.04788
N         -3.60996       -2.19207        1.56495
H         -4.43504       -1.75481        1.96301
H         -3.25758       -2.87109        2.23291
H         -3.88768       -2.69549        0.72500
H          0.08703        3.70575       -0.51648
H         -0.03647        2.08936       -1.20307
H         -2.06809        3.29510       -1.74085
H         -2.44599        2.00613       -0.58827
H         -2.18970        4.84787        0.09253
H         -3.50158        3.89230        0.26881
H         -0.59580        2.74653        1.58827
H         -0.57135        1.25499        0.94948
C         -0.44216        2.74727       -0.42950
C         -1.93134        2.96692       -0.69811
N         -0.14114        2.17502        0.88019
N         -2.48848        3.89712        0.28604
