36
1sa1msa2dma_24.log	Energy: -1025829.6532791
S         -0.69098        1.93124       -0.49022
O         -1.91830        2.71399       -0.47555
O         -0.88654        0.91741       -1.72164
O          0.57514        2.66149       -0.71398
O         -0.54031        1.03830        0.71047
H         -1.85642        0.10564        0.73717
S          0.72963       -1.96376       -0.24237
O         -0.68391       -2.22914        0.08698
O          1.56061       -1.56602        0.92764
O          0.90963       -1.00543       -1.37588
H         -0.20434        0.19217       -1.65985
C          1.41066       -3.50925       -0.82223
H          0.84617       -3.82033       -1.70150
H          2.45902       -3.34950       -1.07464
H          1.31533       -4.24406       -0.02241
N          2.38320        1.03317        0.59591
C          3.64556        0.82621       -0.13743
C          2.52473        1.66873        1.91965
H          1.73646        1.62199        0.02460
H          4.30458        0.19053        0.45611
H          3.40880        0.33353       -1.08064
H          4.12064        1.79063       -0.32475
H          3.13900        1.03427        2.56078
H          2.98858        2.64960        1.80321
H          1.52611        1.77781        2.34241
H          1.92421        0.10149        0.72157
N         -2.86684       -0.21915        0.81332
C         -2.97627       -1.18617        1.92853
C         -3.34009       -0.73883       -0.49469
H         -3.37118        0.64159        1.03126
H         -2.34348       -2.03881        1.68259
H         -2.61188       -0.71062        2.83943
H         -4.01775       -1.48940        2.05096
H         -2.71994       -1.59757       -0.74904
H         -4.39176       -1.01886       -0.40651
H         -3.20310        0.04303       -1.24112
