32
1sa1msa1a1eda_25.log	Energy: -1011241.0430072
S         -2.47417       -0.95033        0.06795
O         -3.33793        0.20557       -0.16899
O         -2.20094       -1.76719       -1.13710
O         -1.22998       -0.66907        0.81620
O         -3.27479       -1.92067        1.10058
H         -4.17722       -2.02630        0.77014
S          2.88410       -0.21575        0.17095
O          2.70021        0.94057        1.08534
O          2.05345       -0.06650       -1.07388
O          2.67590       -1.53617        0.79529
C          4.58600       -0.14010       -0.35594
H          4.75225        0.82164       -0.84116
H          5.21413       -0.23826        0.52966
H          4.76840       -0.96034       -1.05038
N          0.49917       -2.29164       -0.90579
H         -0.52769       -2.18053       -1.07078
H          1.02642       -1.42213       -1.17217
H          0.68707       -2.38946        0.09591
H          0.87559       -3.09517       -1.40014
H          0.57096        3.44309       -0.29311
H          0.71054        1.89986       -1.17004
H         -1.35703        3.36253       -1.76967
H         -1.70294        1.68611       -1.35835
H         -2.62857        3.94815        0.01929
H         -2.93869        2.35395        0.30103
H          1.08144        1.55324        1.12811
H         -0.43777        2.28966        1.49640
C          0.09778        2.47419       -0.47271
C         -1.34587        2.63640       -0.95017
N          0.10308        1.74534        0.82065
N         -2.20371        3.04215        0.16394
H         -0.38035        0.82494        0.74462
