33
1sa1msa1ma1dma_171.log	Energy: -1001149.3950265
S          2.53303       -0.33907       -0.42936
O          3.73908       -0.57029       -1.18333
O          1.63996        0.75351       -0.74920
O          1.76571       -1.68474       -0.32161
O          2.94666       -0.03851        1.11420
H          3.65266       -0.64921        1.36884
S         -1.73033       -1.45895        0.15196
O         -1.56741       -1.53715       -1.30347
O         -2.64201       -0.37256        0.59853
O         -0.40569       -1.36650        0.87382
H          0.83420       -1.57006        0.13123
C         -2.45392       -2.98563        0.71887
H         -1.78798       -3.80000        0.43289
H         -2.56294       -2.93365        1.80200
H         -3.42526       -3.09565        0.23628
N         -0.14458        1.65490        1.60014
H         -0.81292        1.59796        2.36352
C          0.97187        2.54128        1.94212
H          1.50742        2.23436        2.84802
H          1.68081        2.54490        1.11284
H          0.59728        3.55881        2.08705
H          0.17481        0.69757        1.45228
N         -1.67072        1.87633       -0.66947
C         -1.04293        1.66642       -1.99154
C         -2.46666        3.11038       -0.56079
H         -2.25048        1.05246       -0.41156
H         -0.29874        2.44557       -2.16125
H         -0.56023        0.69086       -1.99551
H         -1.81416        1.70029       -2.76345
H         -1.82347        3.97195       -0.74988
H         -3.27862        3.09412       -1.28997
H         -2.88132        3.17703        0.44597
H         -0.94775        1.86779        0.13084
