38
1sa1msa1dma1eda_291.log	Energy: -1060545.3332521
S         -0.28803       -1.73812       -0.17195
O         -1.52646       -2.29418       -0.71377
O          0.41849       -0.79669       -1.09251
O         -0.67251       -0.88186        1.10589
O          0.69378       -2.75536        0.29575
H         -1.73451       -0.84993        1.23702
H          2.13914       -2.19847        0.07512
S          1.02533        2.43237       -0.05617
O          1.20785        3.81835       -0.43332
O          2.19937        1.62081        0.27218
O          0.21251        1.72891       -1.21228
H          0.27035        0.71275       -1.15297
C         -0.09690        2.34466        1.32340
H          0.39483        2.81659        2.17497
H         -1.00226        2.88948        1.05358
H         -0.30539        1.29017        1.51600
N          3.16325       -1.88288        0.08983
C          3.38448       -1.16166        1.36878
C          3.49204       -1.07966       -1.11583
H          3.70640       -2.74545        0.08520
H          2.79344       -0.24550        1.34104
H          3.05643       -1.80239        2.18735
H          4.44273       -0.91594        1.47239
H          2.94986       -0.13751       -1.04899
H          4.56814       -0.89733       -1.14223
H          3.16955       -1.62916       -1.99935
H         -4.80915        0.61025        0.96691
H         -3.28802        1.34462        1.52626
H         -3.76016        1.71195       -0.90633
H         -2.21519        0.91879       -0.62256
H         -4.01919       -0.02003       -2.32105
H         -3.05849       -1.04659       -1.47810
H         -3.54430       -0.94127        2.30164
H         -3.58309       -1.47030        0.75038
C         -3.71615        0.56175        0.89055
C         -3.30348        0.77819       -0.56388
N         -3.21410       -0.74131        1.36223
N         -3.77660       -0.33040       -1.38921
