40
1sa1msa2eda_298.log	Energy: -1095268.4837378
S         -1.20709       -0.71033       -1.24000
O          0.11205       -0.82424       -1.88002
O         -2.34762       -1.23582       -1.98448
O         -1.16919       -1.60560        0.09479
O         -1.47963        0.68988       -0.76541
H         -0.31438       -1.45489        0.57490
H         -3.04064        0.75183       -0.62841
S          2.47666       -1.57034        0.64390
O          2.81835       -2.96513        0.83487
O          1.20006       -1.09246        1.20561
O          2.50672       -1.20052       -0.89819
H          1.58137       -1.08162       -1.26928
C          3.77796       -0.53955        1.25358
H          3.88503       -0.77388        2.31384
H          4.68704       -0.80903        0.71454
H          3.51564        0.51761        1.10908
H         -5.31909       -0.67532        0.67979
H         -3.71379       -1.34368        0.26860
H         -3.80499       -0.60754        2.67571
H         -2.61194        0.28822        1.73360
H         -5.17711        1.31058        2.68461
H         -3.71602        2.04261        2.65027
H         -4.47589        0.28499       -1.36928
H         -4.52205        1.44987       -0.13742
C         -4.25327       -0.45000        0.58368
C         -3.68491        0.12937        1.87311
N         -4.09086        0.58426       -0.47536
N         -4.32881        1.41870        2.13951
H          3.07767        4.06541       -0.73163
H          3.97509        2.56253       -1.00655
H          1.82454        2.46404       -2.16447
H          1.87305        1.26680       -0.87352
H          0.36779        3.75650       -0.83165
H         -0.12618        2.22406       -0.50497
H          3.86481        3.29864        1.38059
H          2.26623        2.91898        1.33179
C          3.09646        2.98550       -0.50550
C          1.83600        2.34065       -1.07151
N          3.17683        2.70678        0.92803
N          0.64730        2.87728       -0.40935
