27
1sa1msa1a1ma_86.log	Energy: -951830.7834217
S          1.45284        0.79302        0.42445
O          0.80708       -0.37322        1.10593
O          1.29608        0.68748       -1.05416
O          0.99854        2.09033        0.94609
O          2.98220        0.67604        0.74581
H          3.35998       -0.17215        0.27926
S         -2.48177       -0.52514       -0.07011
O         -1.99729       -1.31022       -1.19286
O         -2.67088        0.92007       -0.32014
O         -1.63059       -0.73837        1.21308
H         -0.58976       -0.55617        1.11531
C         -4.03947       -1.15978        0.49808
H         -3.90886       -2.21697        0.72714
H         -4.34106       -0.59827        1.38161
H         -4.75470       -1.02448       -0.31362
N         -0.64511        2.52816       -1.21351
H         -0.82778        3.26380       -1.88783
H         -0.22326        2.87989       -0.33878
H         -1.50540        1.99162       -0.96428
H          0.07046        1.83539       -1.53764
N          3.84388       -1.45793       -0.50979
H          4.08497       -1.15101       -1.44782
C          2.76120       -2.45720       -0.56183
H          3.04537       -3.36443       -1.10661
H          2.47560       -2.71993        0.45795
H          1.89091       -2.00349       -1.03825
H          4.68354       -1.85650       -0.10043
