28
1sa1msa1eda_181.log	Energy: -975703.1939156
S         -1.13815       -1.97309        0.00243
O         -2.52573       -2.28979        0.18805
O         -0.28570       -1.63626        1.12885
O         -0.38983       -3.21256       -0.69057
O         -1.05694       -0.84568       -1.08600
H         -0.98246       -3.62765       -1.33506
H         -0.14025       -0.43770       -1.11250
S          2.25355        0.44773        0.05585
O          1.99416        1.70673        0.71655
O          1.39016        0.06706       -1.07597
O          2.26577       -0.75643        1.09462
H          1.35193       -1.12504        1.19603
C          3.93757        0.37429       -0.48793
H          4.06465        1.17611       -1.21601
H          4.57825        0.53526        0.37890
H          4.11452       -0.59990       -0.94150
H         -1.15257        2.01929       -1.31263
H         -0.12200        3.02421       -0.30603
H         -0.81830        1.09831        0.98906
H         -1.58055        2.53667        1.66764
H         -2.93905        0.63411       -0.10726
H         -3.28225        0.93354        1.46152
H         -2.97201        3.53763       -0.70976
H         -1.88578        4.54746       -0.03579
C         -1.15345        2.68403       -0.43794
C         -1.57391        1.87615        0.79216
N         -1.99924        3.83090       -0.74622
N         -2.92604        1.35224        0.61035
