30
1sa1msa2ma_89.log	Energy: -976491.8801894
S         -0.64054       -1.06400        0.46583
O         -1.91882       -1.66071        0.90066
O          0.49696       -1.99951        0.50044
O         -0.75902       -0.33569       -0.81845
O         -0.36426        0.05572        1.58977
H         -3.42814        0.77153       -0.27355
H          0.52607        0.44492        1.41348
S          2.98186        0.33198       -0.17789
O          4.36438        0.75098       -0.16674
O          2.04452        0.97385        0.75542
O          2.95384       -1.23058        0.05203
H          2.02081       -1.55517        0.24305
C          2.30939        0.51656       -1.81509
H          2.34282        1.58058       -2.05327
H          2.93682       -0.05212       -2.50122
H          1.28009        0.14946       -1.80425
N         -2.41520        2.11353       -0.33256
H         -1.57012        1.59373       -0.58001
C         -2.24502        2.75762        0.97921
H         -1.43179        3.49136        0.99379
H         -3.17356        3.25975        1.26365
H         -2.01742        1.98804        1.71922
H         -2.56492        2.81097       -1.05490
N         -3.86272       -0.21732       -0.26290
H         -3.19992       -0.81434        0.30033
C         -3.93067       -0.74714       -1.64371
H         -4.32985       -1.76130       -1.63089
H         -4.56307       -0.10323       -2.25613
H         -2.91273       -0.76104       -2.03430
H         -4.77370       -0.19918        0.18879
