38
1sa1msa1dma1eda_157.log	Energy: -1060549.3296402
S         -1.36329        0.08623        0.88763
O         -0.36276       -0.51420       -0.07047
O         -2.12588       -0.92181        1.61284
O         -0.71257        1.12648        1.71678
O         -2.35078        0.89774       -0.05108
H          0.71086        1.63838        1.10485
H         -3.02422        0.23798       -0.49399
S          2.83849       -1.36094       -0.17027
O          3.22882       -0.29123        0.76602
O          2.75446       -0.97914       -1.57307
O          1.53070       -2.05680        0.31925
H          0.68776       -1.43575        0.21161
C          3.98872       -2.69696        0.03119
H          3.98663       -3.00002        1.07767
H          3.67882       -3.51457       -0.61889
H          4.96748       -2.31684       -0.26242
N         -4.05079       -0.81646       -1.04924
C         -5.06748       -0.99766       -0.00749
C         -3.32657       -2.05684       -1.35155
H         -4.49133       -0.47037       -1.89677
H         -4.56009       -1.26493        0.92269
H         -5.59650       -0.05474        0.14899
H         -5.79324       -1.78137       -0.26498
H         -2.81730       -2.38899       -0.44410
H         -3.99842       -2.85369       -1.69931
H         -2.56896       -1.85995       -2.11298
H          2.20477        2.32943       -1.37347
H          0.84968        1.18789       -1.21134
H          0.05056        3.42134       -2.05185
H         -0.65390        3.00182       -0.48848
H          1.43007        4.99767       -0.96226
H          0.10431        5.09020       -0.00819
H          2.31359        1.24748        0.74178
H          1.84696        2.87580        0.96628
C          1.26719        2.12788       -0.84864
C          0.27913        3.27859       -0.98840
N          1.57861        1.96071        0.59448
N          0.83323        4.46862       -0.33603
