28
1sa1msa1eda_85.log	Energy: -975729.7975937
S         -0.13781       -1.48575        0.07127
O         -0.42975        0.00223       -0.03541
O          0.74348       -1.77309        1.19231
O         -1.39454       -2.24898       -0.00254
O          0.61422       -1.85196       -1.28951
H          1.42984       -1.29874       -1.34199
S          2.95650        0.93287       -0.13640
O          3.90224        1.98834       -0.42050
O          2.67606       -0.06405       -1.17750
O          1.59207        1.61973        0.28994
H          0.81373        0.99143        0.17454
C          3.45131        0.06216        1.33232
H          4.40033       -0.42598        1.10693
H          3.57442        0.79496        2.12966
H          2.67820       -0.67168        1.56996
H         -4.50624       -0.52627        0.95387
H         -2.96740        0.12737        1.55212
H         -4.78322        1.88784        1.51710
H         -3.43392        2.30413        0.46002
H         -6.04436        1.31930       -0.41748
H         -5.17534        2.58328       -0.98319
H         -2.77474       -1.20407       -0.50934
H         -3.65244        0.06578       -1.29592
C         -3.70813        0.19305        0.75392
C         -4.26467        1.60382        0.59308
N         -3.04765       -0.20065       -0.51320
N         -5.10267        1.64661       -0.60521
H         -2.10702        0.24521       -0.57539
