30
1sa1msa1a1dma_30.log	Energy: -976497.9656006
S          1.74443        0.01842       -0.48751
O          1.89285        0.29001        0.95251
O          0.86225       -1.16386       -0.74313
O          1.29569        1.19388       -1.26875
O          3.16587       -0.34844       -1.06903
H          3.68926       -0.84904       -0.35677
S         -2.36461       -1.06567        0.11121
O         -3.77030       -1.21148       -0.19856
O         -1.97792        0.00265        1.05095
O         -1.58621       -0.86643       -1.23949
H         -0.56425       -0.93875       -1.09956
C         -1.70510       -2.58576        0.75631
H         -1.95336       -3.38285        0.05574
H         -0.62474       -2.46531        0.85359
H         -2.17527       -2.75638        1.72505
N          4.34589       -1.50457        1.03145
H          4.25602       -2.50916        1.13773
H          3.72210       -1.05078        1.69639
H          5.30099       -1.24293        1.24980
N         -0.65958        2.27739        0.22534
C         -1.67589        3.03817       -0.52874
C         -0.00035        3.01596        1.32361
H         -1.10920        1.42041        0.60635
H         -1.20417        3.90224       -0.99868
H         -2.09748        2.38532       -1.29341
H         -2.46353        3.36450        0.15199
H          0.47985        3.90631        0.91493
H         -0.74535        3.29967        2.06857
H          0.75138        2.35627        1.75878
H          0.08663        1.92596       -0.43035
