40
1sa1msa2eda_106.log	Energy: -1095294.8503428
S         -2.78958        0.45901       -0.72198
O         -3.47670       -0.22553        0.37917
O         -2.49603        1.88305       -0.46805
O         -1.61006       -0.25666       -1.25398
O         -3.80957        0.41593       -1.98878
H         -4.65409        0.78837       -1.70139
S          2.64734       -0.77216       -0.74138
O          2.39236        0.56127       -1.35237
O          2.11412       -1.90673       -1.52327
O          2.19630       -0.81080        0.68398
C          4.42195       -0.95371       -0.71238
H          4.78115       -0.91714       -1.74104
H          4.84387       -0.13554       -0.12837
H          4.65689       -1.91518       -0.25579
H         -2.10354       -2.85331        0.41709
H         -0.80787       -3.98012        0.87317
H         -1.95426       -2.96249        2.84791
H         -0.21219       -2.65261        2.81424
H         -2.21344       -0.68605        1.91502
H         -1.26857       -0.59840        3.26592
H         -0.68776       -1.34686       -0.39321
H          0.59208       -1.69767        0.62373
C         -1.12048       -2.93413        0.88764
C         -1.16073       -2.41161        2.32003
N         -0.17574       -2.13013        0.07317
N         -1.32061       -0.96508        2.32315
H          0.30525       -2.63812       -0.67505
H         -0.51057        2.40682        1.46302
H          0.20641        0.80180        1.23106
H          1.68918        2.22866        2.66450
H          2.46973        1.77634        1.14744
H          1.36619        4.41643        1.78649
H          2.82240        4.03894        1.14064
H         -0.65853        2.00300       -0.77363
H          0.65403        3.05439       -0.58658
C          0.34005        1.86777        1.03753
C          1.66712        2.38015        1.57794
N          0.31091        2.10044       -0.43018
N          1.84545        3.77469        1.16417
H          0.96846        1.44450       -0.91176
