35
1sa1msa1ma1eda_178.log	Energy: -1035885.1346574
S         -1.67251       -1.76522       -0.07757
O         -0.67673       -1.37383       -1.12198
O         -1.06893       -1.71057        1.27124
O         -2.94765       -1.08778       -0.24219
O         -2.00925       -3.32699       -0.33653
H         -1.28528       -3.85684        0.02430
S          2.47263       -0.39945       -0.15865
O          2.64190       -0.74828        1.24393
O          1.76312        0.86834       -0.41253
O          1.79863       -1.55013       -0.96833
H          0.75375       -1.48775       -0.99092
C          4.05576       -0.33774       -0.95585
H          4.63278        0.44311       -0.45995
H          4.53401       -1.30914       -0.83102
H          3.90338       -0.10572       -2.00919
N         -0.25016        0.92237        1.62893
H         -0.48883       -0.08758        1.68631
H          0.50340        0.99777        0.92824
C          0.17689        1.47403        2.92731
H          0.40484        2.53458        2.81268
H         -0.62480        1.34984        3.65526
H          1.06792        0.94370        3.26341
H         -1.09960        1.40623        1.20232
H         -1.79693        4.19259       -1.20875
H         -0.68018        3.48720       -2.36120
H         -2.50680        1.94857       -2.02764
H         -1.04162        1.22338       -1.36921
H         -3.05153        2.59046        0.28612
H         -2.89904        0.96818        0.09415
H         -0.26627        3.64481        0.53992
H          0.77504        2.94237       -0.52892
C         -1.06051        3.38827       -1.33911
C         -1.76332        2.03509       -1.22360
N          0.04510        3.64071       -0.42452
N         -2.38034        1.84907        0.10305
