36
1sa1msa2dma_43.log	Energy: -1025818.8700183
S          0.88808       -1.24868       -0.30923
O          0.08998       -2.37760       -0.83531
O          1.21135       -0.19708       -1.28243
O          0.19552       -0.66874        0.90176
O          2.22849       -1.88061        0.20411
H          2.92092       -1.11396        0.40093
S         -1.59904        2.09786       -0.00437
O         -2.26582        3.30247        0.44027
O         -2.43058        0.90635       -0.25961
O         -0.48875        1.73418        1.04305
H         -0.17273        0.75126        0.95781
C         -0.68338        2.42935       -1.49065
H         -1.40913        2.65245       -2.27352
H         -0.04668        3.29344       -1.29933
H         -0.08821        1.54358       -1.72832
N         -2.38657       -1.82017        0.10819
C         -3.49815       -2.26799       -0.75282
C         -2.49541       -2.22676        1.52515
H         -1.46741       -2.15634       -0.27739
H         -4.43442       -1.84891       -0.38120
H         -3.31617       -1.91454       -1.76748
H         -3.54638       -3.35794       -0.74439
H         -3.39814       -1.79167        1.95692
H         -2.53849       -3.31544        1.58397
H         -1.60906       -1.85815        2.04070
H         -2.32127       -0.78392        0.05856
N          3.90845        0.05497        0.59834
C          3.17910        1.22642        1.09898
C          4.53532        0.29502       -0.70584
H          4.61927       -0.21127        1.27385
H          2.39104        1.47601        0.38509
H          2.70803        0.98443        2.05373
H          3.83421        2.09864        1.22586
H          3.74355        0.46056       -1.44073
H          5.20688        1.16422       -0.69192
H          5.10013       -0.59083       -1.00475
