33
1sa1msa1ma1dma_166.log	Energy: -1001150.4103117
S          1.42361        0.45881       -0.67904
O          2.67466        0.77129       -1.36331
O          0.22344        0.39975       -1.55817
O          1.55641       -1.02066       -0.09586
O          1.14913        1.34989        0.48643
H          2.55703       -1.21722        0.08022
H         -0.33452        1.97658        0.38663
S         -2.23697       -1.43183        0.13729
O         -3.57335       -1.98786        0.07765
O         -2.02639       -0.17567        0.86262
O         -1.73596       -1.25158       -1.34992
H         -0.93074       -0.63705       -1.40962
C         -1.11552       -2.63823        0.80352
H         -1.39120       -2.79331        1.84724
H         -1.23479       -3.55811        0.23105
H         -0.10423       -2.23738        0.71218
N          4.13531       -1.24421        0.26847
H          4.60701       -2.14198        0.29658
C          4.48464       -0.41468        1.42928
H          5.56106       -0.23223        1.52421
H          3.97077        0.54432        1.33400
H          4.12698       -0.90165        2.33942
H          4.39978       -0.77173       -0.59343
N         -1.09948        2.71602        0.33860
C         -1.79116        2.79441        1.64775
C         -2.00315        2.47911       -0.81541
H         -0.57542        3.57651        0.17975
H         -2.29228        1.84194        1.81408
H         -1.04452        2.96080        2.42449
H         -2.51191        3.61389        1.63044
H         -2.55523        1.56219       -0.61928
H         -2.68344        3.32690       -0.91716
H         -1.39389        2.34823       -1.70871
