33
1sa1msa1ma1dma_126.log	Energy: -1001151.7441772
S         -1.25427        0.45444        0.76179
O         -2.41368        0.17538        1.59914
O          0.06235        0.03936        1.34772
O         -1.36932       -0.40913       -0.55620
O         -1.14508        1.88444        0.34402
H         -2.37394       -0.61952       -0.77630
H          0.37659        2.28470        0.31524
S          2.83781       -0.82861       -0.18006
O          3.18560        0.37461        0.59829
O          2.53072       -0.60588       -1.58590
O          1.70986       -1.62352        0.54648
H          0.94037       -0.98535        0.86355
C          4.17159       -1.99057       -0.04098
H          5.03696       -1.54385       -0.53104
H          4.36733       -2.16664        1.01598
H          3.87372       -2.90914       -0.54604
N          1.41203        2.51566        0.17681
H          1.63491        3.35565        0.70535
C          1.69409        2.67496       -1.26943
H          2.74246        2.93507       -1.41383
H          1.49320        1.72095       -1.75678
H          1.04392        3.44912       -1.67598
H          1.97433        1.72914        0.55188
N         -3.86042       -0.92120       -1.05451
C         -4.59760        0.34322       -0.95510
C         -4.31323       -1.91568       -0.07558
H         -3.96141       -1.29825       -1.99259
H         -4.41685        0.77097        0.03392
H         -4.22209        1.04298       -1.70519
H         -5.67830        0.20538       -1.09607
H         -4.09275       -1.53484        0.92419
H         -5.38956       -2.11888       -0.16073
H         -3.75946       -2.84582       -0.22126
