24
1sa1msa2a_55.log	Energy: -927170.7376381
S          1.40497        0.92919       -0.19427
O          1.27124        0.32587       -1.52117
O          0.85008        0.01580        0.87397
O          2.76620        1.35459        0.17547
O          0.53321        2.25691       -0.14504
H         -0.40602        1.99812       -0.29077
S         -2.49976       -0.21434       -0.07399
O         -3.22723       -0.86091       -1.14387
O         -1.96810        1.13621       -0.28359
O         -1.33241       -1.16580        0.39648
H         -0.45900       -0.65717        0.57971
C         -3.54147       -0.15875        1.36886
H         -4.40282        0.46244        1.12071
H         -3.85585       -1.17655        1.59911
H         -2.97480        0.27636        2.19190
N          3.41976       -1.06255        1.24650
H          4.31327       -1.36208        1.62469
H          2.69441       -1.05364        1.96362
H          3.44966       -0.08194        0.87499
H          3.06742       -1.69627        0.43594
N          2.29050       -2.39806       -0.86780
H          1.48237       -2.95185       -0.59629
H          2.82109       -2.94545       -1.53840
H          1.91996       -1.57398       -1.35510
