30
1sa1msa2ma_73.log	Energy: -976491.8954819
S          1.51040       -0.16441       -0.85507
O          2.49499       -1.04997       -1.46127
O          0.09392       -0.38125       -1.27834
O          1.47006       -0.47040        0.71123
O          1.82546        1.28627       -0.99507
H          2.40659       -0.78063        1.00589
H          0.41153        2.07190       -0.79796
S         -2.80588       -0.42349        0.29142
O         -2.76777        0.75315       -0.59567
O         -2.56419       -0.17250        1.70312
O         -1.86354       -1.53842       -0.26906
H         -0.98683       -1.13726       -0.65434
C         -4.38071       -1.21718        0.09325
H         -5.13377       -0.53234        0.48388
H         -4.53953       -1.41134       -0.96674
H         -4.36745       -2.14384        0.66682
N         -0.52538        2.41783       -0.43897
H         -0.74247        3.32690       -0.84001
C         -0.48227        2.45801        1.04470
H         -1.47229        2.69313        1.43297
H         -0.17931        1.47199        1.39716
H          0.25011        3.20083        1.35927
H         -1.25632        1.74330       -0.73381
N          3.95789       -1.20117        1.14847
H          4.22677       -1.82705        1.90014
C          4.78962        0.00896        1.13258
H          5.85626       -0.19744        0.98760
H          4.44510        0.65777        0.32386
H          4.65953        0.54456        2.07591
H          4.05096       -1.70453        0.26855
