36
1sa1msa1ma1tma_45.log	Energy: -1025814.6980404
S          1.21938        0.61721        0.40832
O          0.36279        0.89254        1.56947
O          1.52554       -0.83329        0.21522
O          0.67703        1.21540       -0.83876
O          2.60992        1.30214        0.71081
H         -1.00213        1.50842       -0.37321
H          3.31139        0.91691        0.06278
S         -1.63014       -2.12260       -0.16434
O         -2.51573       -3.20651       -0.53657
O         -2.00125       -0.75640       -0.54376
O         -0.20228       -2.46300       -0.73608
H          0.48372       -1.77538       -0.43357
C         -1.37457       -2.12927        1.59970
H         -2.34690       -1.95807        2.06393
H         -0.98452       -3.10726        1.88133
H         -0.67438       -1.32994        1.85479
N          4.27970        0.09149       -0.92753
H          3.65223       -0.22068       -1.66410
C          4.79756       -1.06388       -0.18002
H          5.35107       -1.77193       -0.80719
H          5.45671       -0.70674        0.61443
H          3.94979       -1.57397        0.28089
H          5.03003        0.61298       -1.36912
N         -1.78890        2.18462       -0.24013
C         -1.12759        3.49859       -0.04288
H         -0.50845        3.43465        0.85204
H         -0.49085        3.70097       -0.90307
H         -1.89259        4.27066        0.06629
C         -2.59236        2.14128       -1.48589
H         -1.93782        2.37746       -2.32530
H         -2.98574        1.13203       -1.60272
H         -3.39965        2.87395       -1.41715
C         -2.57938        1.79628        0.95494
H         -3.03571        0.82776        0.76110
H         -1.89082        1.71543        1.79545
H         -3.33889        2.56114        1.13460
