38
1sa1msa1dma1eda_204.log	Energy: -1060548.8776201
S          0.74729       -2.15629       -0.37213
O         -0.58150       -2.76853       -0.34074
O          1.06899       -1.32211       -1.52370
O          1.04733       -1.47573        0.93858
O          1.83102       -3.36205       -0.46635
H          1.60702       -4.02492        0.20061
S          2.10017        1.75847        0.16386
O          2.66273        2.98611        0.68660
O          0.64350        1.64466        0.03970
O          2.62576        0.57447        1.07354
H          2.05145       -0.24993        0.97802
C          2.81976        1.39916       -1.42124
H          2.50416        2.18806       -2.10523
H          3.90332        1.40278       -1.30341
H          2.45061        0.42305       -1.74340
N         -1.43430       -0.20202        1.46520
C         -2.27191       -1.29960        1.98793
C         -1.61583        1.08464        2.17002
H         -0.44649       -0.50659        1.48125
H         -3.31803       -0.99246        1.94490
H         -2.09633       -2.18214        1.37179
H         -1.99550       -1.50519        3.02391
H         -2.64013        1.41922        1.99728
H         -1.43032        0.94307        3.23681
H         -0.90687        1.80164        1.75692
H         -1.62598       -0.06642        0.42012
H         -4.17174        0.79496       -2.29216
H         -4.28430        2.33776       -1.44526
H         -2.06514        1.97064       -2.48352
H         -1.96723        2.23379       -0.73785
H         -1.87564       -0.45470       -1.93692
H         -0.60356        0.38177       -1.35735
H         -5.19412        0.79768        0.00567
H         -4.00953       -0.29463       -0.21230
C         -3.81545        1.34990       -1.40874
C         -2.30527        1.53078       -1.50542
N         -4.19626        0.70166       -0.14952
N         -1.61164        0.26375       -1.26768
