36
1sa1msa2dma_138.log	Energy: -1025810.9322055
S          1.43105       -1.77591        0.03474
O          1.29593       -2.17003       -1.36144
O          2.57186       -0.91323        0.35275
O          0.17032       -1.23091        0.64285
O          1.61199       -3.15191        0.88965
H          2.15974       -3.74821        0.36188
S         -2.76154        0.04655       -0.12203
O         -2.03816        1.02412       -0.93547
O         -2.86981        0.33867        1.30269
O         -2.17916       -1.39887       -0.35134
H         -1.22644       -1.44563        0.00247
C         -4.37904       -0.20042       -0.81165
H         -4.91115        0.74569       -0.70919
H         -4.26711       -0.47142       -1.86097
H         -4.87757       -0.98924       -0.24917
N          0.68241        1.47256        1.23955
C          1.70046        1.39115        2.30801
C         -0.39526        2.44768        1.50574
H          1.15662        1.73668        0.31131
H          1.21782        1.11468        3.24711
H          2.42861        0.63254        2.02186
H          2.18150        2.36570        2.41542
H         -0.96617        2.13624        2.38103
H          0.05600        3.42778        1.67580
H         -1.05960        2.47387        0.64251
H          0.29898        0.52195        1.08349
N          1.80956        2.16787       -1.19376
C          1.11752        1.34040       -2.19299
C          3.25961        1.94785       -1.19269
H          1.62199        3.14529       -1.39924
H          1.33012        0.28652       -1.99863
H          0.03866        1.48709       -2.10874
H          1.44408        1.57047       -3.21687
H          3.45205        0.91694       -0.88518
H          3.70995        2.11476       -2.18168
H          3.73242        2.62254       -0.47304
