40
1sa1msa2eda_248.log	Energy: -1095278.0271905
S          1.56084       -1.79191       -0.04994
O          2.97943       -2.10475       -0.13134
O          0.63615       -2.93616        0.06473
O          1.26356       -0.75158        0.98965
O          1.23063       -1.07442       -1.45966
H          2.57960        0.13878        1.15918
H          0.27085       -0.85858       -1.45941
S         -2.30500       -1.18730       -0.06553
O         -3.72266       -1.04123       -0.32297
O         -1.37462       -0.44911       -0.93977
O         -1.95429       -2.72305       -0.13488
H         -0.95537       -2.85667       -0.07992
C         -1.95004       -0.73669        1.61384
H         -2.26011        0.30830        1.71220
H         -2.54088       -1.38508        2.26114
H         -0.87682       -0.85898        1.77777
H          4.81205        1.54914       -0.23650
H          3.89151        0.12531       -0.81439
H          3.09918        2.41909       -1.75779
H          1.85657        1.41652       -1.01205
H          2.80503        3.93728       -0.04692
H          1.42361        3.07270        0.32621
H          4.18769        0.29521        1.66944
H          3.18977        1.67192        1.55133
C          3.83312        1.06286       -0.25973
C          2.75400        2.00609       -0.80446
N          3.44863        0.75607        1.14542
N          2.44181        3.02477        0.19638
H         -1.55899        4.14809        0.11492
H         -1.02200        3.43239       -1.39881
H         -3.45011        3.24038       -1.21709
H         -2.69650        1.64234       -1.21938
H         -3.84606        2.96915        1.11320
H         -4.16601        1.48657        0.49750
H         -0.84665        2.22701        1.26043
H         -0.45715        1.44293       -0.09235
C         -1.44940        3.19480       -0.41776
C         -2.82338        2.55291       -0.62779
N         -0.48763        2.37447        0.32142
N         -3.42910        2.16843        0.64937
