35
1sa1msa1ma1eda_05.log	Energy: -1035902.5934518
S         -2.45768       -1.12695        0.04921
O         -3.23618       -0.04928       -0.55564
O         -2.02950       -2.18435       -0.89173
O         -1.33876       -0.67432        0.91151
O         -3.43143       -1.85806        1.13264
H         -4.24417       -2.11354        0.67573
S          2.80676        0.29247        0.19059
O          2.93517       -0.92779        1.00793
O          2.39995        1.50395        0.95344
O          1.91206        0.07320       -0.99331
C          4.42214        0.66333       -0.46797
H          5.09438        0.84236        0.37144
H          4.75740       -0.19360       -1.05250
H          4.34398        1.55154       -1.09489
N          0.67974       -2.28253       -0.30703
H          1.09334       -1.41045       -0.71335
H          0.57437       -2.06611        0.68620
C          1.56487       -3.44301       -0.52599
H          1.12121       -4.33019       -0.07411
H          1.68362       -3.59856       -1.59803
H          2.52935       -3.22441       -0.06852
H         -0.28498       -2.40483       -0.67474
H          0.31128        3.07794       -0.89125
H         -0.27486        1.47736       -1.35918
H         -1.96428        3.29454       -1.88414
H         -2.58968        2.09738       -0.74361
H         -1.72835        4.81800       -0.08410
H         -3.07255        4.01171        0.38791
H          0.72877        1.75369        0.92556
H         -0.72330        2.57956        1.30334
C         -0.45937        2.32606       -0.70006
C         -1.86086        2.90363       -0.86395
N         -0.28828        1.87088        0.70231
N         -2.08715        3.90698        0.18021
H         -0.76216        0.95511        0.85209
