38
1sa1msa1dma1eda_317.log	Energy: -1060543.6043819
S         -0.03690       -1.09048       -0.07063
O         -1.11565       -2.09030        0.03252
O          1.31155       -1.67710       -0.23370
O         -0.25950       -0.31052       -1.45910
O         -0.06880       -0.07827        1.00517
H         -1.18053        0.04596       -1.45844
H          2.50452        0.15704        2.21022
S         -3.75109        0.18836       -0.04983
O         -5.15147        0.48323       -0.24833
O         -2.79307        0.58703       -1.09079
O         -3.62229       -1.36555        0.20605
H         -2.66678       -1.67294        0.13275
C         -3.19832        0.90224        1.48332
H         -3.30283        1.98350        1.38317
H         -3.84003        0.52573        2.27976
H         -2.15269        0.62216        1.63292
N          2.42257        2.36264       -0.06353
C          1.22608        2.95090        0.55087
C          2.22901        2.07598       -1.49169
H          3.19865        3.01154        0.03310
H          0.42502        2.20743        0.53262
H          1.43553        3.20438        1.59427
H          0.89068        3.85668        0.02756
H          1.43002        1.33800       -1.60037
H          1.95118        2.97653       -2.05686
H          3.14872        1.65009       -1.89672
H          4.91057        0.46612        1.18849
H          4.51609       -0.94640        2.19752
H          5.62779       -1.54291        0.03566
H          4.05571       -2.32021        0.25439
H          4.65777       -1.07523       -1.95639
H          3.14498       -0.95342       -1.35554
H          2.72461        0.92139        0.71730
H          2.25105       -0.71341        0.82318
C          4.29116       -0.43185        1.25999
C          4.55064       -1.35567        0.07233
N          2.86811       -0.00026        1.27331
N          4.12079       -0.72609       -1.17188
