26
1sa1msa1dma_54.log	Energy: -940989.3702348
S         -1.98815       -0.85876        0.14114
O         -1.78118       -2.15144        0.78146
O         -1.09046       -0.53483       -0.98308
O         -3.45497       -0.94141       -0.57965
O         -2.08202        0.29164        1.08458
H         -4.02395       -1.47778       -0.01232
H         -1.03169        1.38424        0.51066
S          2.21944       -0.41669       -0.04312
O          1.98307        0.63980       -1.01766
O          1.76568       -0.21320        1.32372
O          3.82598       -0.64446        0.01317
H          4.09862       -0.62977        0.94199
C          1.66299       -1.96460       -0.69222
H          0.59076       -1.84343       -0.87344
H          2.20364       -2.14825       -1.62074
H          1.85862       -2.73564        0.05224
N         -0.39948        2.05237       -0.01747
C          0.33051        2.91864        0.92832
C         -1.23025        2.76562       -1.01009
H          0.27004        1.45051       -0.51646
H         -0.38872        3.50386        1.50297
H          0.90987        2.28051        1.59558
H          0.99681        3.58189        0.37432
H         -1.98772        3.34807       -0.48421
H         -0.59944        3.42235       -1.61154
H         -1.70941        2.01731       -1.64131
