35
1sa1msa1ma1eda_288.log	Energy: -1035869.0880669
S         -1.68903       -0.66030        0.26433
O         -2.73638       -1.69568        0.34763
O         -0.64554       -0.93335       -0.73955
O         -2.27513        0.70503        0.09758
O         -0.99800       -0.69396        1.69719
H         -4.00910        0.59484        0.22108
H         -0.21988       -0.08530        1.67475
S          1.39800        1.79030        0.06593
O          2.72769        2.35614        0.00128
O          1.00250        1.08402        1.29106
O          1.23497        0.82807       -1.17347
H          0.52664        0.13129       -1.02167
C          0.18203        3.05038       -0.23698
H          0.25785        3.77441        0.57514
H          0.40884        3.51759       -1.19519
H         -0.79747        2.56685       -0.24340
N         -4.82056       -0.06940        0.19394
H         -4.29944       -0.95815        0.39159
C         -5.44134       -0.10447       -1.15053
H         -6.20345       -0.88218       -1.17985
H         -5.88361        0.86572       -1.37403
H         -4.65756       -0.33007       -1.87281
H         -5.48479        0.13556        0.93654
H          2.09116       -1.15987        0.70545
H          2.44264       -2.84634        1.08365
H          4.43105       -1.48626        1.38220
H          4.67279       -2.63167        0.04684
H          4.04806        0.21898       -0.31374
H          5.41563       -0.56692       -0.74880
H          1.20067       -2.50383       -1.03614
H          2.57050       -1.84442       -1.65655
C          2.63375       -2.05240        0.35201
C          4.12466       -1.73370        0.35288
N          2.21298       -2.50251       -0.96876
N          4.41765       -0.67827       -0.61623
