32
1sa1msa1a1eda_289.log	Energy: -1011224.1809116
S          0.91142        1.69351       -0.19325
O          0.33075        0.96883        0.97858
O          0.22548        2.93132       -0.51137
O          2.38841        1.77690       -0.08878
O          0.75936        0.66602       -1.43941
H         -0.18443        0.39298       -1.54488
S         -2.26004       -1.09797       -0.32113
O         -2.48115       -2.49967       -0.61216
O         -1.78025       -0.21863       -1.39549
O         -1.21094       -1.04575        0.87333
H         -0.68778       -0.17236        0.90118
C         -3.71362       -0.36433        0.37216
H         -4.46743       -0.35486       -0.41637
H         -4.03452       -0.98819        1.20671
H         -3.44760        0.65347        0.69286
N         -2.36968        2.48513        1.25572
H         -1.67285        2.27094        1.96342
H         -2.92920        3.25724        1.60350
H         -1.83668        2.83057        0.45943
H          4.23064       -2.23825        0.29422
H          4.23661       -0.69973        1.19537
H          2.52847       -2.34740        2.10492
H          1.79219       -0.84498        1.52518
H          1.64002       -3.43570        0.20883
H          0.50709       -2.25476        0.35769
H          4.06059       -0.62021       -1.38068
H          2.47833       -1.11335       -1.09099
C          3.64253       -1.35427        0.55558
C          2.31535       -1.75248        1.20875
N          3.30718       -0.63004       -0.69827
N          1.49660       -2.43260        0.21123
H          3.00705        0.37296       -0.48768
