40
1sa1msa2eda_63.log	Energy: -1095294.5801059
S         -2.37771        1.60783       -0.28019
O         -2.51976        3.05391       -0.26531
O         -3.60641        0.81551       -0.36750
O         -1.29807        1.10026       -1.17552
O         -1.70427        1.19217        1.18887
H         -2.32632        1.44122        1.88495
S          2.33873       -1.71155        0.01903
O          1.30450       -2.65154        0.53437
O          2.95684       -0.85703        1.04429
O          1.79712       -0.91497       -1.13235
C          3.62592       -2.74213       -0.66246
H          4.02285       -3.35857        0.14440
H          3.19318       -3.36404       -1.44590
H          4.40285       -2.09360       -1.06784
H         -2.69149       -1.45495       -1.39461
H         -1.71882       -2.94610       -1.45100
H         -3.99277       -3.23120       -0.35702
H         -2.65391       -3.67866        0.71181
H         -3.97511       -1.04603        0.79928
H         -4.03665       -2.22816        1.96054
H         -0.79195       -0.66672       -0.58974
H         -1.51700       -1.13714        0.81967
C         -2.17066       -2.20305       -0.79263
C         -3.13694       -2.83469        0.20688
N         -1.09814       -1.49130       -0.05432
N         -3.48082       -1.83578        1.21145
H         -0.25606       -2.06905        0.17449
H          0.83615        2.94711        0.83978
H          1.13789        1.24620        1.24917
H          3.06275        2.70210        1.95056
H          3.51591        1.46799        0.77361
H          3.16904        4.33131        0.21679
H          4.41451        3.35211       -0.18783
H          0.31787        1.71366       -1.06313
H          1.86960        2.39429       -1.33762
C          1.47911        2.08520        0.64247
C          2.94740        2.39303        0.90416
N          1.32142        1.72431       -0.78888
N          3.40976        3.38762       -0.06757
H          1.66717        0.74723       -0.96189
