30
1sa1msa2ma_128.log	Energy: -976477.4154812
S         -1.98753       -0.26793       -0.50587
O         -0.87060        0.51184       -1.07266
O         -3.22277       -0.22325       -1.31086
O         -1.55787       -1.80011       -0.53856
O         -2.25339        0.08384        0.92021
H         -0.63230       -1.88172       -0.19924
H         -3.87782        0.28115        1.12514
S          2.06276       -0.81448        0.22162
O          3.01675       -1.12182       -0.82962
O          0.95934       -1.76216        0.43802
O          1.46028        0.63356        0.01854
H          0.54273        0.60147       -0.40914
C          2.92373       -0.58224        1.75168
H          3.36428       -1.54660        2.00831
H          3.70653        0.16370        1.57207
H          2.20270       -0.26728        2.50498
N         -4.83937        0.43017        0.70222
H         -4.64093        0.05839       -0.25207
C         -5.17504        1.87069        0.64832
H         -6.11237        2.01250        0.11119
H         -5.25788        2.26414        1.66097
H         -4.36661        2.37785        0.12249
H         -5.54404       -0.13024        1.17471
N          5.09083        1.13538       -0.00901
H          6.10343        1.18596       -0.02428
C          4.50022        2.39439       -0.46347
H          4.80227        2.70068       -1.47567
H          3.41167        2.29801       -0.45020
H          4.77311        3.19420        0.23141
H          4.81391        0.37514       -0.62485
