41
1sa1msa1tma1eda_208.log	Energy: -1085203.1157972
S          0.13874       -1.66771        0.54645
O         -0.22069       -1.04217       -0.91292
O          0.28804       -0.46998        1.42560
O         -0.99467       -2.51395        0.86483
O          1.43372       -2.36694        0.38059
H          2.64734       -1.72726       -0.33771
S          3.28349        0.31751       -0.61486
O          4.39424        0.94744       -1.29074
O          3.43043       -1.23924       -0.76982
O          1.91695        0.71357       -1.00891
H          0.53611       -0.48246       -1.18947
C          3.41350        0.57240        1.14202
H          4.35447        0.13569        1.47622
H          3.41387        1.65008        1.31269
H          2.55150        0.09742        1.61719
H         -5.71155       -0.53275       -1.02011
H         -4.68126       -0.37252       -2.44724
H         -3.87924       -2.16571       -0.97913
H         -2.67580       -0.88970       -1.13592
H         -4.43674       -1.24931        1.17315
H         -2.81960       -1.44295        1.09989
H         -5.10445        1.78521       -1.54141
H         -4.51483        1.34205       -0.08119
C         -4.70924       -0.22264       -1.36306
C         -3.66065       -1.11948       -0.71987
N         -4.42687        1.18682       -1.08105
N         -3.59416       -0.89362        0.72852
N         -0.74951        1.86114        0.64626
C         -1.92133        1.92192        1.55776
H         -2.60600        1.10738        1.29439
H         -1.56945        1.78531        2.58104
H         -2.40424        2.89605        1.44836
C          0.32967        2.79228        1.04968
H          0.66630        2.52463        2.05216
H          1.15035        2.68797        0.33956
H         -0.05623        3.81411        1.04271
C         -1.14160        2.06566       -0.77250
H         -0.27705        1.85801       -1.40246
H         -1.98162        1.41300       -1.01508
H         -1.45645        3.10489       -0.89596
H         -0.35355        0.89291        0.77361
