40
1sa1msa2eda_285.log	Energy: -1095271.5123935
S         -0.09173       -0.77534        1.27780
O          1.14389       -0.36339        1.97583
O         -1.32932       -0.48416        1.98687
O         -0.19191        0.14809       -0.05564
O         -0.00340       -2.16718        0.75355
H          0.69528        0.18103       -0.48984
H         -0.88917       -2.29412       -0.55845
S          3.50983        0.29911       -0.38298
O          3.85226        1.69089       -0.17111
O          2.27618        0.01131       -1.13820
O          3.48347       -0.51133        0.96491
H          2.55846       -0.48534        1.39721
C          4.85492       -0.52622       -1.19544
H          4.98670       -0.03981       -2.16232
H          5.74631       -0.40363       -0.58044
H          4.59973       -1.57821       -1.31550
H         -0.68111        2.77338        0.26476
H         -1.30383        4.23181       -0.51988
H         -2.65039        3.71402        1.40405
H         -3.61569        3.52949       -0.07657
H         -2.38804        1.25697        1.35009
H         -3.95876        1.68399        1.41602
H         -0.87812        2.69869       -2.20830
H         -1.67756        1.49343       -1.46449
C         -1.51754        3.17459       -0.32942
C         -2.79103        3.09904        0.50182
N         -1.67692        2.49813       -1.61561
N         -3.13536        1.70938        0.82297
H         -3.43767       -3.15444       -1.83835
H         -2.77966       -3.62111       -0.24661
H         -4.66429       -1.86190       -0.13593
H         -3.14919       -1.36631        0.63876
H         -4.18193       -0.34241       -1.87724
H         -3.38823        0.42614       -0.63287
H         -1.16051       -2.83996       -2.14782
H         -1.75106       -1.32294       -1.66811
C         -2.90437       -2.79891       -0.95275
C         -3.61830       -1.59227       -0.32463
N         -1.56674       -2.31091       -1.38146
N         -3.43706       -0.43809       -1.19626
