32
1sa1msa1a1eda_153.log	Energy: -1011230.0468639
S         -0.29329       -2.22981       -0.09655
O          1.05589       -1.97124        0.48057
O         -1.34699       -2.11679        0.91912
O         -0.54253       -1.49782       -1.34237
O         -0.26705       -3.77803       -0.58179
H         -0.12402       -4.33425        0.19595
S          2.31582        1.16078       -0.04829
O          2.25845        1.28969        1.40584
O          1.14016        1.60881       -0.79283
O          2.71313       -0.30039       -0.46401
H          2.03787       -0.99379       -0.12244
C          3.74638        2.01885       -0.65582
H          4.62317        1.64060       -0.13146
H          3.82177        1.84539       -1.72884
H          3.59204        3.07707       -0.44360
N         -0.63738        0.59137        2.17918
H         -1.03060        1.00820        3.01609
H          0.36760        0.77093        2.18300
H         -0.77373       -0.41842        2.22896
H         -3.26218        0.30918       -1.45339
H         -3.02621       -0.40096        0.15215
H         -4.86210        1.30281        0.20572
H         -3.49891        1.80946        1.20758
H         -4.12965        2.87210       -1.44774
H         -3.87763        3.68933       -0.05370
H         -0.97230        0.27499       -0.96333
H         -1.45342        1.88534       -0.82445
C         -2.96410        0.52500       -0.42362
C         -3.81595        1.63615        0.17400
N         -1.54777        0.94727       -0.43132
N         -3.60176        2.87027       -0.58129
H         -1.17031        0.95038        0.56725
