41
1sa1msa1tma1eda_64.log	Energy: -1085218.8855557
S         -2.00775       -1.64032        0.23939
O         -1.04103       -1.17190       -0.76730
O         -1.61484       -2.86127        0.94982
O         -2.47975       -0.54996        1.12212
O         -3.29991       -2.04988       -0.68035
H         -3.92545       -2.51956       -0.11276
S          2.29848        1.54463        0.24978
O          3.21848        0.70726        1.04160
O          1.46708        2.49000        1.01564
O          1.44908        0.70197       -0.67510
C          3.32480        2.53136       -0.83255
H          3.96103        3.15752       -0.20631
H          3.93138        1.86316       -1.44477
H          2.67984        3.14757       -1.45939
H         -1.49994        2.63648       -1.72200
H         -2.25189        1.03106       -1.58808
H         -3.97262        2.80051       -1.27023
H         -3.74511        1.85582        0.20537
H         -2.74834        4.57474       -0.24165
H         -3.59495        3.98343        1.02990
H         -0.20461        1.16237       -0.32598
H         -0.81140        2.41045        0.59099
C         -2.01725        1.94920       -1.04637
C         -3.26723        2.58609       -0.45522
N         -1.08143        1.59177        0.03937
N         -2.89334        3.75487        0.33707
H         -1.53451        0.88787        0.65393
N          1.73372       -2.10664       -0.27253
C          3.11620       -1.90723       -0.78051
H          3.06751       -1.72531       -1.85445
H          3.55023       -1.04870       -0.26749
H          3.69178       -2.81286       -0.57709
C          1.71378       -2.22327        1.21343
H          2.15483       -1.31557        1.62830
H          0.67833       -2.34844        1.53245
H          2.30087       -3.09998        1.49677
C          1.08255       -3.27440       -0.92241
H          0.10495       -3.43129       -0.47023
H          0.97012       -3.06652       -1.98622
H          1.72138       -4.14739       -0.77021
H          1.20252       -1.24457       -0.50442
