36
1sa1msa2dma_156.log	Energy: -1025807.8258830
S          1.03489       -1.95407       -0.34010
O          2.02049       -1.81154        0.74474
O         -0.29891       -2.41054        0.03243
O          1.01854       -0.73520       -1.20513
O          1.68666       -3.12149       -1.25813
H          0.98982       -3.47851       -1.82532
S         -0.82785        2.10218       -0.44976
O         -0.42901        3.30881       -1.15118
O          0.00641        1.69678        0.69905
O         -0.92894        0.89418       -1.45749
H         -0.18560        0.21181       -1.33291
C         -2.50163        2.22008        0.10535
H         -2.53677        3.02937        0.83569
H         -3.12107        2.45579       -0.76070
H         -2.76130        1.24460        0.54403
N          2.60025        0.85370        0.83629
C          3.13557        1.32414        2.12938
C          3.40337        1.23971       -0.34457
H          2.48823       -0.18703        0.85121
H          3.20244        2.41298        2.11828
H          2.45946        1.00476        2.92220
H          4.12385        0.89087        2.28982
H          3.42954        2.32763       -0.42300
H          4.41435        0.84478       -0.23342
H          2.92906        0.80708       -1.22507
H          1.62884        1.21276        0.71811
N         -2.88425       -0.90695        0.77290
C         -3.63079       -1.19979       -0.44104
C         -3.49736       -1.48320        1.95867
H         -1.94492       -1.28333        0.66782
H         -4.61674       -0.72149       -0.39068
H         -3.09714       -0.78924       -1.30247
H         -3.78785       -2.27872       -0.60844
H         -4.47108       -1.01167        2.13674
H         -3.65948       -2.57199        1.88072
H         -2.86531       -1.29106        2.82978
