36
1sa1msa2dma_93.log	Energy: -1025814.2661257
S          0.19426       -1.48830       -0.12136
O         -1.03713       -2.29585       -0.06098
O          0.30618       -0.50983        0.98343
O          1.42797       -2.26711       -0.32518
O          0.10676       -0.60584       -1.47572
H         -0.72987       -0.08486       -1.43585
S         -3.21540        0.43015        0.01105
O         -4.52297        1.01160       -0.18862
O         -2.13063        0.81032       -0.90736
O         -3.38430       -1.14009       -0.00562
H         -2.49460       -1.61062       -0.03806
C         -2.65086        0.76406        1.66452
H         -2.55482        1.84690        1.75624
H         -3.39984        0.38442        2.35932
H         -1.68283        0.27457        1.79701
N          3.34429       -0.37905        0.17504
C          3.55958       -0.48592        1.63236
C          4.57438       -0.39778       -0.63440
H          2.70731       -1.16051       -0.10797
H          4.15776        0.36155        1.97414
H          2.57960       -0.47937        2.11125
H          4.07494       -1.42046        1.86076
H          5.21348        0.43955       -0.34665
H          5.10717       -1.33704       -0.47545
H          4.30522       -0.30757       -1.68725
H          2.78462        0.52754       -0.01096
N          1.76182        1.84794       -0.15766
C          1.64501        2.37275       -1.51749
C          1.96238        2.89135        0.84450
H          0.91844        1.32370        0.07773
H          2.58874        2.84546       -1.80942
H          1.43425        1.54831       -2.20163
H          0.84307        3.11810       -1.61079
H          2.93110        3.37660        0.68514
H          1.18374        3.66656        0.80766
H          1.95817        2.44288        1.84150
