38
1sa1msa1dma1eda_20.log	Energy: -1060565.2525048
S          2.76030        0.55913        0.13222
O          3.47246       -0.59718        0.67666
O          1.65913        0.21421       -0.79562
O          2.33740        1.55512        1.14042
O          3.80339        1.33185       -0.85313
H          4.61620        1.49334       -0.35530
S         -2.44969       -1.09829       -0.06240
O         -2.85519       -0.04871       -1.00753
O         -1.52431       -0.58605        1.00278
O         -1.89255       -2.32633       -0.69625
C         -3.92083       -1.63223        0.79686
H         -4.35671       -0.76613        1.29536
H         -4.61302       -2.03693        0.05803
H         -3.64115       -2.39567        1.52266
N          0.79841       -2.34485       -0.25876
C          1.64333       -3.16535       -1.14820
C          0.97823       -2.63706        1.18182
H          1.04012       -1.34556       -0.43133
H          1.42021       -4.22148       -0.98835
H          1.43158       -2.89483       -2.18262
H          2.69060       -2.95999       -0.92077
H          0.74735       -3.68887        1.36033
H          2.00902       -2.41103        1.45748
H          0.28536       -2.00330        1.73547
H         -0.21690       -2.43574       -0.49962
H          0.20838        3.15218       -0.83146
H         -0.45153        1.59109       -1.35173
H         -2.07545        3.47494       -1.77082
H         -2.71149        2.24726       -0.67223
H         -1.72430        4.90272        0.10448
H         -3.13221        4.17464        0.50614
H          0.60379        1.79147        0.96051
H         -0.84530        2.57560        1.35798
C         -0.58203        2.41739       -0.65440
C         -1.96681        3.04193       -0.76839
N         -0.40422        1.89807        0.72583
N         -2.15111        4.00766        0.31931
H         -0.86990        0.96545        0.83911
