27
1sa1msa1a1ma_145.log	Energy: -951824.1109001
S         -2.09977       -0.19920       -0.32705
O         -1.09363        0.37388       -1.25872
O         -2.01571       -1.67496       -0.26566
O         -2.14230        0.44137        0.98847
O         -3.53057        0.16741       -0.98119
H         -3.54165       -0.15156       -1.89444
S          2.20692       -0.61725       -0.19790
O          3.14184       -1.71978       -0.25384
O          1.38029       -0.47601        1.01915
O          1.25572       -0.73588       -1.44855
H          0.36095       -0.28449       -1.33321
C          3.03931        0.92581       -0.44000
H          3.73331        1.04731        0.39293
H          3.58000        0.85743       -1.38444
H          2.27867        1.72160       -0.45575
N         -0.74825       -1.69543        2.12215
H         -0.68329       -2.35012        2.89506
H          0.18897       -1.36999        1.78746
H         -1.24107       -2.08435        1.28968
H         -1.29044       -0.85387        2.35537
N          0.44723        2.82988       -0.18501
H          0.26528        3.73559       -0.60366
C          0.31342        2.89897        1.27022
H         -0.68461        3.19585        1.61956
H          0.53578        1.91383        1.68905
H          1.04699        3.60640        1.67014
H         -0.23774        2.18145       -0.56720
