41
1sa1msa1tma1eda_51.log	Energy: -1085218.5828263
S          3.07101        0.12166        0.08697
O          3.36246       -1.31686        0.02171
O          2.56600        0.74077       -1.13762
O          2.24583        0.47558        1.27778
O          4.51261        0.85332        0.32334
H          5.00885        0.31936        0.95727
S         -2.81678       -0.40603        0.11412
O         -2.69338       -1.86274       -0.19879
O         -2.72311        0.47098       -1.06300
O         -1.86341       -0.01458        1.19799
C         -4.45264       -0.21763        0.79985
H         -5.17299       -0.53967        0.04771
H         -4.52456       -0.83559        1.69474
H         -4.59875        0.83481        1.04421
H          0.92707        2.73956       -1.02757
H         -0.29049        1.50094       -1.36582
H         -1.17263        3.78529       -1.89489
H         -2.11244        2.94812       -0.65819
H         -0.20052        5.12423       -0.17305
H         -1.75168        4.99888        0.32919
H          0.92585        1.43182        0.89497
H         -0.07473        2.76342        1.25269
C         -0.05723        2.36343       -0.74221
C         -1.14680        3.42080       -0.86020
N          0.02279        1.92195        0.67370
N         -0.91072        4.46882        0.13649
H         -0.75308        1.26135        0.90262
N         -0.13691       -2.64691       -0.23643
C          0.48634       -2.40659        1.09386
H          0.24100       -1.39244        1.40667
H          0.06847       -3.12175        1.80367
H          1.56906       -2.51055        1.00499
C         -0.00365       -4.05668       -0.66407
H         -0.46127       -4.70217        0.08628
H         -0.51391       -4.18762       -1.61895
H          1.05620       -4.29698       -0.76972
C          0.39208       -1.71615       -1.26856
H         -0.17699       -1.85652       -2.18786
H          0.25812       -0.69628       -0.91283
H          1.45603       -1.90157       -1.41746
H         -1.16503       -2.41869       -0.15571
