38
1sa1msa1dma1eda_124.log	Energy: -1060551.9626574
S         -0.48049       -1.56129        0.30129
O          0.11506       -0.80613       -0.87303
O         -1.61505       -2.38054       -0.09278
O          0.60508       -2.26849        1.02150
O         -0.96966       -0.43604        1.30019
H         -1.69965        0.18235        0.82957
S          1.48032        2.22862       -0.07028
O          1.75600        3.58043       -0.50457
O          2.58540        1.25469       -0.09352
O          0.28501        1.66878       -0.91970
H          0.21670        0.62197       -0.88697
C          0.83861        2.25638        1.58917
H          0.03412        2.99167        1.62338
H          0.46557        1.25928        1.83391
H          1.65455        2.55706        2.24735
N          2.88691       -1.49283       -0.15021
C          2.96884       -2.08971       -1.50017
C          4.08211       -1.69969        0.68961
H          2.70474       -0.47536       -0.23394
H          3.11882       -3.16605       -1.40383
H          2.02594       -1.88853       -2.00827
H          3.80175       -1.64140       -2.04430
H          4.24075       -2.76940        0.83331
H          4.95158       -1.25434        0.20367
H          3.91714       -1.22089        1.65463
H          2.03030       -1.86919        0.34028
H         -3.77014        1.12198       -1.71780
H         -2.54137       -0.15488       -1.59378
H         -4.79406       -1.10201       -1.27495
H         -3.81282       -1.26826        0.18114
H         -6.00224        0.64245       -0.20919
H         -5.74888       -0.38630        1.03541
H         -2.04499        1.87653       -0.27766
H         -3.34986        1.49919        0.67822
C         -3.28929        0.41073       -1.03183
C         -4.32789       -0.54182       -0.45304
N         -2.62072        1.11637        0.07610
N         -5.28393        0.21215        0.36363
