32
1sa1msa1a1eda_09.log	Energy: -1011243.6046326
S         -2.14781       -1.30733       -0.25130
O         -1.36875       -1.01604        1.00687
O         -1.09207       -1.03804       -1.43867
O         -2.54058       -2.68891       -0.41278
O         -3.22080       -0.29135       -0.39721
H         -2.94008        0.95686        0.63804
S          0.78056        2.17347       -0.12414
O          1.77747        1.51341        0.76214
O         -0.32312        2.82361        0.63279
O          0.29564        1.26923       -1.19666
H         -0.72987       -0.12283       -1.36935
C          1.64256        3.50125       -0.94045
H          2.00533        4.18967       -0.17718
H          2.47259        3.07193       -1.50143
H          0.94018        3.99852       -1.60927
N         -2.51735        1.48787        1.44974
H         -3.19573        2.07273        1.92722
H         -1.68990        2.04760        1.11587
H         -2.16425        0.74466        2.05650
H          1.26564       -2.62180       -0.68603
H          1.58140       -0.96433       -1.21819
H          3.68031       -2.35848       -1.28717
H          3.81946       -1.00432       -0.15923
H          3.36852       -3.79918        0.59700
H          4.51926       -2.76815        1.13477
H          0.26853       -1.24309        0.92568
H          1.76659       -1.74403        1.58635
C          1.81329       -1.70549       -0.45329
C          3.31087       -1.95802       -0.33431
N          1.31710       -1.19365        0.84762
N          3.55953       -2.82712        0.81716
H          1.57054       -0.18546        0.94829
