30
1sa1msa1a1dma_24.log	Energy: -976497.9707838
S          1.97056        0.17470       -0.34006
O          0.64808       -0.15464       -0.96642
O          3.12152       -0.07168       -1.20106
O          1.90181        1.54870        0.22037
O          2.06250       -0.82296        0.89912
H          0.34057        2.00580        0.29734
H          2.99098       -1.23410        0.93659
S         -2.35523       -1.05202       -0.01969
O         -2.96494       -0.52424       -1.23055
O         -2.10075       -0.07167        1.05270
O         -1.05231       -1.85827       -0.32645
H         -0.27159       -1.21868       -0.58155
C         -3.36208       -2.35072        0.64838
H         -4.32501       -1.90571        0.89984
H         -3.47886       -3.11624       -0.11835
H         -2.87099       -2.74978        1.53502
N          4.53875       -1.81128        0.72864
H          5.25092       -1.46171        1.36031
H          4.68459       -1.39322       -0.18896
H          4.64598       -2.81645        0.64838
N         -0.69244        2.22881        0.31147
C         -1.13632        2.51389       -1.07162
C         -0.95728        3.31031        1.27867
H         -1.16381        1.36007        0.62842
H         -0.63614        3.41675       -1.42520
H         -0.85592        1.66380       -1.69297
H         -2.21911        2.64568       -1.08518
H         -0.44386        4.21636        0.95362
H         -2.03160        3.49191        1.33864
H         -0.57894        3.00702        2.25495
