36
1sa1msa2dma_78.log	Energy: -1025812.5970007
S          1.74930       -1.79074       -0.07154
O          2.71857       -0.99770        0.70291
O          1.56363       -3.18308        0.29743
O          0.47830       -1.01852       -0.22575
O          2.39755       -1.80106       -1.57436
H          2.18103       -2.65436       -1.97245
S         -2.68769       -0.30310        0.16394
O         -2.43406        0.59456       -0.96347
O         -2.39971        0.21483        1.49646
O         -1.96568       -1.68373       -0.06852
H         -0.95742       -1.54052       -0.13140
C         -4.37289       -0.85757        0.09871
H         -4.99915        0.02099        0.25557
H         -4.55469       -1.29600       -0.88185
H         -4.52352       -1.58808        0.89305
N          1.54827        1.45582        1.19036
C          0.58838        1.37024        2.30878
C          2.59681        2.47429        1.36556
H          1.99612        0.52582        1.04981
H          0.11200        2.34301        2.44811
H         -0.17667        0.63428        2.06133
H          1.11248        1.08006        3.22160
H          2.13511        3.46140        1.43709
H          3.16624        2.27029        2.27449
H          3.26692        2.44314        0.50541
H          1.00112        1.66175        0.27214
N          0.22958        1.98631       -1.13779
C          1.15304        1.67187       -2.22748
C         -0.34167        3.32660       -1.23859
H         -0.53800        1.31371       -1.14982
H          2.01710        2.34456       -2.18233
H          1.50263        0.64298       -2.11956
H          0.68547        1.78625       -3.21583
H          0.44800        4.07689       -1.11828
H         -0.83404        3.50110       -2.20585
H         -1.08218        3.46427       -0.44698
