28
1sa1msa1eda_60.log	Energy: -975733.1829759
S          1.02640        1.51875       -0.01008
O          0.31414        0.56624        0.90166
O          0.39812        2.81070       -0.16123
O          2.44453        1.76470        0.69067
O          1.33323        0.79949       -1.28868
H          2.92885        0.90093        0.67332
H          1.07652       -0.76513       -1.04888
S         -2.77239       -0.44267        0.05867
O         -4.12193       -0.86786        0.34748
O         -1.84331       -1.44099       -0.50152
O         -2.15802        0.15325        1.37973
H         -1.18400        0.39733        1.24146
C         -2.79693        0.94937       -1.05019
H         -3.18742        0.59449       -2.00458
H         -3.45547        1.70338       -0.61939
H         -1.78512        1.34284       -1.16305
H          3.43416       -2.74472       -0.65788
H          3.67353       -2.45207        1.06200
H          1.39936       -3.15698        0.73442
H          1.39539       -1.44585        1.23778
H          0.99307       -2.40014       -1.51999
H         -0.15881       -1.72658       -0.51512
H          4.65383       -0.65819        0.00630
H          3.38872       -0.35846       -0.98266
C          3.17317       -2.06612        0.16983
C          1.67723       -2.14065        0.44573
N          3.64163       -0.69517       -0.05530
N          0.85955       -1.76027       -0.73874
