35
1sa1msa1ma1eda_07.log	Energy: -1035905.0607186
S          0.25528        2.24028       -0.49473
O         -0.20738        1.09011       -1.53820
O          1.66926        2.52339       -0.75527
O         -0.72057        3.29528       -0.67719
O          0.13011        1.55457        0.86131
H         -1.21023        0.58461        0.95776
S          0.96370       -2.17445       -0.22216
O         -0.51595       -2.26019       -0.11961
O          1.65104       -2.16226        1.09225
O          1.41240       -1.03998       -1.08646
H          0.40300        0.31504       -1.46983
C          1.47324       -3.66083       -1.06189
H          1.17508       -4.51275       -0.45056
H          0.97889       -3.68785       -2.03285
H          2.55632       -3.62962       -1.18059
N          2.61141        0.45478        1.01766
H          2.70657        0.37174        0.00083
H          1.65906        0.88481        1.13059
C          3.66397        1.29772        1.61413
H          3.48071        1.39525        2.68390
H          4.64044        0.84294        1.44716
H          3.61517        2.27694        1.13848
H          2.54783       -0.51469        1.36642
H         -3.17936        1.37330        0.00111
H         -2.46168        0.27653       -1.17745
H         -4.91443       -0.20930       -0.87220
H         -3.92218       -1.58204       -0.36753
H         -5.23104        0.31677        1.43753
H         -5.30387       -1.31720        1.44443
H         -2.48404       -0.30506        1.68724
H         -1.48479       -1.00141        0.51577
C         -2.94770        0.32447       -0.20335
C         -4.19111       -0.54983       -0.12018
N         -1.97166       -0.12828        0.81839
N         -4.69932       -0.52763        1.25299
