41
1sa1msa1tma1eda_225.log	Energy: -1085193.4761473
S         -1.03174       -0.37426       -0.24840
O         -1.83288       -1.59358       -0.26653
O          0.16226       -0.39742       -1.12343
O         -1.85904        0.85022       -0.48626
O         -0.50126       -0.26556        1.25625
H         -3.33234        0.48982       -0.15375
H          0.20460        0.42343        1.30465
S          2.43202        1.89906        0.10775
O          3.73756        1.31065        0.32644
O          1.38969        1.67271        1.11892
O          1.86467        1.50974       -1.31188
H          1.17574        0.76560       -1.25185
C          2.61623        3.65211       -0.10717
H          3.03928        4.04183        0.81922
H          3.29822        3.82120       -0.94033
H          1.63575        4.08427       -0.30283
H          1.82530       -1.55664        0.95667
H          3.54420       -1.34566        1.24703
H          3.12855       -1.10904       -1.13002
H          4.04111       -2.60035       -0.86521
H          1.16698       -2.44119       -1.38058
H          2.29879       -3.19557       -2.28485
H          2.22026       -3.94197        1.01251
H          3.75414       -3.68963        1.49401
C          2.80689       -2.01959        0.79965
C          3.06536       -2.12316       -0.70538
N          2.81933       -3.29193        1.51560
N          2.04096       -2.95910       -1.33356
N         -4.33786        0.21246        0.10003
C         -5.13886        1.45607        0.11872
H         -4.72475        2.13224        0.86728
H         -5.08206        1.92722       -0.86297
H         -6.17798        1.22110        0.36111
C         -4.79778       -0.73802       -0.94290
H         -4.78065       -0.23152       -1.90848
H         -4.10144       -1.57651       -0.96195
H         -5.81251       -1.06895       -0.70892
C         -4.27259       -0.43190        1.43705
H         -3.61528       -1.29854        1.36481
H         -3.85170        0.28016        2.14761
H         -5.27907       -0.72523        1.74497
