30
1sa1msa2ma_97.log	Energy: -976491.8151104
S          0.56685       -0.42247        1.02089
O          0.31773        0.94371        0.42423
O          0.25121       -1.47025        0.03751
O          1.90634       -0.50346        1.61216
O         -0.43680       -0.55570        2.24437
H         -1.35113       -0.37152        1.91727
S         -3.03746        0.29201       -0.37873
O         -4.29417        0.87173       -0.79432
O         -2.79720        0.07427        1.05361
O         -1.87316        1.19651       -0.95772
H         -1.02819        1.10561       -0.41244
C         -2.79587       -1.26245       -1.20755
H         -3.57224       -1.93840       -0.84676
H         -2.90182       -1.09274       -2.27897
H         -1.80124       -1.63278       -0.94981
N          2.73264       -0.88494       -1.66450
H          1.76283       -1.12342       -1.44322
C          3.60915       -1.90640       -1.06850
H          3.42888       -2.91070       -1.46637
H          4.65602       -1.64449       -1.24721
H          3.42861       -1.92680        0.00871
H          2.82078       -0.88211       -2.67600
N          2.98973        1.36300       -0.10087
H          2.96816        0.56017       -0.82641
H          2.00951        1.68359       -0.03906
C          3.96942        2.42254       -0.39242
H          3.93632        3.18640        0.38446
H          4.96810        1.98727       -0.43393
H          3.73345        2.87481       -1.35576
H          3.12742        0.88938        0.80062
