38
1sa1msa1dma1eda_328.log	Energy: -1060540.6616700
S         -1.96682       -1.42929       -0.31182
O         -3.02347       -0.43739       -0.35164
O         -0.99955       -1.33872       -1.44394
O         -1.24874       -1.55353        0.98061
O         -2.73955       -2.83665       -0.51035
H         -2.09539       -3.55458       -0.44131
S          2.29182       -0.83388       -0.32099
O          2.56314       -1.59234        0.89138
O          1.68253        0.49464       -0.12587
O          1.45794       -1.65731       -1.34527
H          0.42195       -1.50517       -1.31186
C          3.80140       -0.62817       -1.23060
H          4.47796       -0.05105       -0.59985
H          4.21190       -1.61730       -1.43264
H          3.57925       -0.09709       -2.15549
N         -0.01596        0.53895        2.13609
C         -0.83134        1.70817        2.53599
C          0.77893       -0.07227        3.22584
H         -0.62388       -0.20819        1.72167
H         -0.17451        2.46436        2.97127
H         -1.33146        2.10027        1.64213
H         -1.56389        1.38529        3.27718
H          1.46074        0.67492        3.63524
H          0.09736       -0.42216        4.00199
H          1.34502       -0.90673        2.81081
H          0.61699        0.77993        1.35590
H         -0.49661        4.36804       -1.70549
H          0.72735        3.28229       -2.34193
H         -1.43365        2.19925       -2.53301
H         -0.46758        1.32875       -1.34276
H         -2.59301        3.23790       -0.69142
H         -2.59314        1.62129       -0.44599
H          0.15407        3.66158        0.49917
H          1.35244        2.73681       -0.13103
C          0.02369        3.41996       -1.51362
C         -0.98876        2.27367       -1.52827
N          0.79451        3.57207       -0.28333
N         -1.99484        2.44534       -0.47462
