20
1sa1msa1a_12.log	Energy: -891671.2902937
S          1.43830       -0.63284       -0.05274
O          0.82398       -1.87688       -0.44954
O          1.05156        0.57199       -0.81030
O          1.15222       -0.33573        1.48086
O          2.97136       -0.75154       -0.04135
H          0.18476       -0.13299        1.56624
H          3.42489        0.22245       -0.03896
S         -2.33988        0.32988        0.10082
O         -3.62952        0.95717        0.25677
O         -1.46127        0.21648        1.27328
O         -1.56289        1.12097       -1.03821
H         -0.58495        0.94823       -0.99171
C         -2.53574       -1.29492       -0.59367
H         -3.10769       -1.88088        0.12691
H         -3.08330       -1.19385       -1.53051
H         -1.54677       -1.73096       -0.74913
N          3.93193        1.61278       -0.08934
H          4.82988        1.71313       -0.55262
H          4.00063        2.03011        0.83428
H          3.23522        2.13247       -0.61854
