35
1sa1msa1ma1eda_236.log	Energy: -1035883.0162670
S          0.09769       -0.96230       -0.80405
O         -1.17188       -1.06593       -1.55372
O          1.30915       -1.08883       -1.61774
O          0.16739        0.56701       -0.26694
O          0.12434       -1.82043        0.40528
H         -0.71352        0.81134        0.10784
H          1.81912       -2.21968        0.66183
S         -3.61140        0.56973        0.25267
O         -4.37342        1.47971       -0.57809
O         -2.29814        1.02027        0.74035
O         -3.45490       -0.83934       -0.43118
H         -2.54614       -0.95270       -0.88066
C         -4.58775        0.11326        1.66492
H         -4.79923        1.03133        2.21384
H         -5.51092       -0.34084        1.30532
H         -4.01279       -0.58471        2.27214
N          2.84399       -2.11683        0.48923
H          2.93165       -2.24059       -0.52106
C          3.68479       -3.02745        1.28220
H          4.73640       -2.84678        1.05675
H          3.50782       -2.83756        2.34103
H          3.43537       -4.06472        1.05656
H          3.03872       -1.06498        0.68056
H          4.53057        0.93620       -0.60877
H          2.90799        0.73256       -1.29145
H          3.59461        3.08950       -1.48672
H          2.23624        2.93344       -0.36828
H          5.02645        3.39350        0.39097
H          3.69951        4.24179        0.82231
H          3.44337        1.10353        1.55530
H          2.00488        0.75512        0.85637
C          3.47112        1.19016       -0.47330
C          3.29943        2.70640       -0.49878
N          3.01142        0.59022        0.78851
N          4.03936        3.31111        0.61145
