38
1sa1msa1dma1eda_306.log	Energy: -1060544.1447617
S         -2.61680       -0.22689       -0.52012
O         -3.10678        0.24317        0.77189
O         -1.92931        0.83694       -1.30882
O         -1.86943       -1.49536       -0.48488
O         -3.90370       -0.61029       -1.42871
H         -4.45244        0.18059       -1.51925
S          1.02848        2.04448        0.26973
O          2.45349        1.81626        0.09850
O          0.32790        1.27488        1.30453
O          0.32992        1.85170       -1.11653
H         -0.61506        1.41863       -1.08924
C          0.75214        3.76588        0.61369
H          1.24752        3.99370        1.55791
H          1.18322        4.34672       -0.20143
H         -0.32300        3.92884        0.68986
N         -0.07335       -1.44849        1.64989
C         -1.07479       -1.39773        2.74046
C          1.02100       -2.42202        1.85738
H         -0.57483       -1.63164        0.76057
H         -0.57824       -1.09503        3.66342
H         -1.84782       -0.67973        2.46353
H         -1.51665       -2.38808        2.85981
H          1.45277       -2.25911        2.84664
H          0.60970       -3.43114        1.79849
H          1.78882       -2.26025        1.09711
H          0.30989       -0.49871        1.50558
H          3.63377       -0.63097       -2.04594
H          4.20925       -2.26330       -1.69364
H          2.02488       -2.30384       -2.79068
H          1.95606       -3.02779       -1.17710
H          1.13525       -0.26066       -1.72847
H          0.10892       -1.50000       -1.49577
H          4.59494       -1.08164        0.23811
H          3.15455       -0.33053        0.22011
C          3.46240       -1.51474       -1.40877
C          2.07927       -2.07904       -1.71345
N          3.61433       -1.21538        0.01581
N          1.03826       -1.15898       -1.26242
