33
1sa1msa1ma1dma_08.log	Energy: -1001167.4581752
S         -2.79768       -0.06756       -0.11597
O         -3.19153        1.19913       -0.72552
O         -2.39239       -1.11670       -1.08004
O         -1.81356        0.06189        0.98712
O         -4.10543       -0.64900        0.66015
H         -4.86151       -0.57395        0.06232
S          2.78410       -0.16513       -0.17644
O          2.93217        1.08117       -0.93917
O          2.46636       -1.37149       -0.98638
O          1.78531       -0.01188        0.94399
C          4.34838       -0.49775        0.61333
H          5.09625       -0.62237       -0.17022
H          4.59797        0.35109        1.25000
H          4.25408       -1.40998        1.20242
N         -0.02116       -2.05653       -0.03223
H          0.85975       -1.97885       -0.58346
H          0.07484       -1.32966        0.68682
C         -0.20883       -3.39008        0.57133
H         -1.12246       -3.38312        1.16557
H         -0.29304       -4.13241       -0.22172
H          0.64767       -3.62291        1.20374
H         -0.85344       -1.78192       -0.59676
N          0.03624        1.99759        0.36680
C          0.21190        3.28657        1.06133
C         -0.06263        2.11377       -1.10827
H          0.82247        1.34576        0.60286
H         -0.64191        3.93101        0.84714
H          0.27949        3.10487        2.13401
H          1.13157        3.75462        0.70790
H         -0.93741        2.71337       -1.35986
H          0.86197        2.54599       -1.48919
H         -0.18407        1.11477       -1.52738
H         -0.80074        1.48918        0.71477
