36
1sa1msa2dma_148.log	Energy: -1025811.2254721
S         -1.06389        0.34062        0.46774
O         -0.82052        1.44922       -0.50525
O         -1.29713       -0.95158       -0.18886
O          0.01985        0.31912        1.48901
O         -2.36393        0.71925        1.27371
H         -3.21156        0.41770        0.74235
S          2.51134       -1.47477       -0.16828
O          3.83101       -2.06930       -0.10059
O          2.35586       -0.17226       -0.82265
O          1.97277       -1.36175        1.31508
H          1.17577       -0.73922        1.37689
C          1.37912       -2.61209       -0.93076
H          1.68959       -2.72444       -1.97033
H          1.45501       -3.56143       -0.40060
H          0.37429       -2.18833       -0.85743
N          1.41609        2.77808       -0.14741
C          2.25635        2.41985        1.02299
C          2.16116        2.86430       -1.42683
H          0.60402        2.09112       -0.26344
H          2.99094        3.20978        1.19246
H          1.60648        2.28870        1.88697
H          2.75026        1.47628        0.79909
H          2.93116        3.63423       -1.34965
H          2.60743        1.88868       -1.61561
H          1.45619        3.11004       -2.22118
H          0.95130        3.66705        0.03519
N         -4.43551       -0.10291       -0.07297
C         -4.55074       -1.54044        0.19342
C         -4.19177        0.19043       -1.48956
H         -5.28343        0.36817        0.22903
H         -3.58815       -2.00642       -0.03005
H         -4.76917       -1.69620        1.25225
H         -5.33561       -2.01504       -0.41153
H         -3.24402       -0.27059       -1.77731
H         -4.99116       -0.19383       -2.13798
H         -4.10051        1.27004       -1.62705
