38
1sa1msa1dma1eda_336.log	Energy: -1060538.9545367
S          0.89207        1.58311       -0.35749
O          1.24690        1.23422       -1.73143
O         -0.01315        0.58800        0.29923
O          2.23387        1.60140        0.48901
O          0.29675        2.93350       -0.17258
H          2.92929        1.00877       -0.00084
H         -1.20169        2.73722        0.29632
S         -2.10414       -1.86003       -0.18946
O         -2.62253       -1.24427       -1.40667
O         -2.62546       -1.35385        1.07834
O         -0.52904       -1.84632       -0.17987
H         -0.19559       -0.89606       -0.00960
C         -2.35920       -3.61639       -0.27038
H         -3.43742       -3.77686       -0.29524
H         -1.89278       -3.99136       -1.18089
H         -1.91852       -4.07035        0.61646
N         -2.24585        2.64727        0.50503
C         -2.45125        1.88521        1.76318
C         -2.89828        2.03680       -0.68202
H         -2.58507        3.60091        0.62426
H         -2.07542        0.87356        1.61539
H         -1.89662        2.37844        2.56167
H         -3.51721        1.85678        1.99555
H         -2.49420        1.03548       -0.82931
H         -3.97474        1.97596       -0.51511
H         -2.67653        2.65258       -1.55383
H          4.92560       -1.26241        1.15305
H          4.07539       -2.80041        0.97980
H          4.30158       -2.00899       -1.22290
H          2.61789       -1.65000       -0.78983
H          4.82490        0.28758       -0.85218
H          3.45836        0.27574       -1.76997
H          3.03910       -1.54011        2.71727
H          2.65400       -0.31959        1.69238
C          3.95284       -1.71598        0.88620
C          3.66020       -1.39689       -0.57550
N          2.85014       -1.31453        1.74806
N          3.83976        0.03955       -0.85572
