40
1sa1msa2eda_40.log	Energy: -1095296.2447756
S         -2.95621        0.14385       -0.33601
O         -2.82544        1.40907       -1.09216
O         -2.99587       -1.05423       -1.19416
O         -2.01489        0.03973        0.78758
O         -4.40542        0.22022        0.40089
H         -5.08601        0.27924       -0.28310
S          2.39355       -0.17005       -0.66304
O          2.46606       -0.40225        0.79395
O          1.93169        1.20642       -1.00637
O          1.61950       -1.21688       -1.38552
C          4.05606       -0.28206       -1.30087
H          4.66366        0.47337       -0.80218
H          4.43546       -1.28119       -1.08565
H          4.02129       -0.10561       -2.37588
H         -1.11980       -4.03823        0.71902
H         -0.11845       -4.19401       -0.74811
H          1.16557       -4.56728        1.43583
H          1.83557       -3.30512        0.39520
H          0.93483       -2.95983        3.01707
H          1.44176       -1.78766        1.95853
H         -1.51692       -2.12406       -0.73271
H         -0.75565       -1.67237        0.65024
C         -0.27764       -3.61660        0.16535
C          0.98400       -3.56541        1.03384
N         -0.63432       -2.23122       -0.20744
N          0.81248       -2.57616        2.09088
H          0.14630       -1.78778       -0.74377
H         -0.95591        3.60351        1.31205
H         -0.79630        1.84910        1.57771
H          1.09261        3.36431        2.55021
H          1.61139        1.96535        1.60189
H          2.37048        4.51100        1.08932
H          2.35831        3.30718       -0.02808
H         -1.32469        2.18504       -0.68668
H         -0.10812        3.36545       -0.83025
C         -0.34310        2.72233        1.10712
C          1.10596        2.93575        1.54413
N         -0.38379        2.49950       -0.36461
N          1.77884        3.84486        0.61064
H          0.33787        1.79928       -0.64328
