32
1sa1msa1a1eda_212.log	Energy: -1011230.7283203
S         -0.98576       -1.34861       -0.33724
O         -0.50551       -0.45551        0.77644
O          0.02847       -2.27764       -0.80461
O         -2.15699       -2.22089        0.25505
O         -1.59171       -0.47690       -1.39052
H         -2.97443       -1.66008        0.48151
H         -0.79023        0.97576       -1.29926
S          2.92284        0.08032        0.24984
O          4.15208        0.62786        0.77895
O          2.27621        0.79906       -0.86483
O          1.90327       -0.03971        1.44281
H          0.95489       -0.28352        1.14699
C          3.16717       -1.59623       -0.27825
H          3.86438       -1.56846       -1.11637
H          3.59289       -2.14643        0.56086
H          2.19894       -2.00615       -0.57783
N         -4.40654       -0.87810        0.86716
H         -5.09396       -1.07978        0.14735
H         -4.32294        0.13632        0.93868
H         -4.77400       -1.22577        1.74749
H         -2.43377        3.38425       -0.72366
H         -2.10198        3.60941        0.98401
H          0.03446        3.63694       -0.17180
H         -0.06186        2.15602        0.79854
H         -0.32657        2.36665       -2.11901
H          0.78797        1.50562       -1.19999
H         -2.76349        1.08073       -0.35739
H         -2.25009        1.15814        1.16310
C         -1.99319        2.90061        0.15651
C         -0.49214        2.68642       -0.05344
N         -2.75042        1.69342        0.45554
N         -0.19606        1.85012       -1.25130
