32
1sa1msa1a1eda_69.log	Energy: -1011240.1140673
S         -2.59228       -0.09655       -0.18201
O         -2.32767        0.49994       -1.49532
O         -3.95078       -0.11669        0.30757
O         -2.15971       -1.65472       -0.25090
O         -1.60214        0.48471        0.82940
H         -1.22904       -1.74074       -0.55917
H         -0.98662       -0.56021        1.82571
S          1.73421       -1.28486       -0.32932
O          0.52155       -2.14305       -0.33625
O          1.94120       -0.66786        1.02337
O          1.76809       -0.27542       -1.40785
H          0.86508        1.20828       -1.12811
C          3.11737       -2.36862       -0.61426
H          3.12998       -3.12485        0.17043
H          2.98144       -2.82997       -1.59248
H          4.02791       -1.76971       -0.59281
N         -0.39690       -1.32136        2.29428
H         -0.64182       -2.20009        1.83641
H         -0.55217       -1.37292        3.29607
H          0.59490       -1.10729        2.04161
H          0.64050        2.79028        1.60047
H          1.51203        4.21914        1.04514
H         -0.43711        3.79385       -0.37382
H          1.07384        3.62302       -1.31172
H         -0.45532        1.36275       -0.10669
H         -0.60006        1.79579       -1.65537
H          3.23422        2.76096        1.26876
H          2.40870        1.44272        0.75837
C          1.28241        3.17951        0.79314
C          0.47533        3.20591       -0.49966
N          2.52588        2.44487        0.61882
N          0.06926        1.83298       -0.88125
