36
1sa1msa1ma1tma_28.log	Energy: -1025819.1751887
S         -2.32963       -1.03673        0.15637
O         -0.97684       -1.56499        0.31872
O         -2.41731       -0.32159       -1.25055
O         -3.45466       -1.92166        0.26533
O         -2.53253        0.13948        1.18993
H         -1.74751        0.76616        1.17170
S          0.19064        2.07215       -0.25554
O          1.60830        1.68122       -0.34115
O         -0.42730        1.69432        1.05749
O         -0.62836        1.58332       -1.40083
H         -1.72729        0.40540       -1.33003
C          0.12027        3.85008       -0.32860
H          0.55593        4.16525       -1.27678
H         -0.92521        4.15118       -0.26281
H          0.69134        4.24515        0.51160
N          1.32658       -0.61636        1.79911
H          0.64013        0.12954        1.67857
C          2.48118       -0.10399        2.53995
H          2.23006        0.26025        3.54340
H          3.24013       -0.88677        2.64184
H          2.91268        0.72463        1.97307
H          0.85289       -1.35910        2.30442
N          1.95363       -1.49396       -0.70850
C          1.90491       -2.94721       -0.43354
H          2.45673       -3.15031        0.48591
H          0.86085       -3.23307       -0.30218
H          2.35276       -3.49490       -1.26622
C          1.15769       -1.14703       -1.91139
H          0.13481       -1.48476       -1.75737
H          1.16808       -0.06643       -2.04004
H          1.60211       -1.64413       -2.77835
C          3.34057       -0.98773       -0.82106
H          3.29193        0.09480       -0.94152
H          3.88027       -1.23111        0.09551
H          3.83223       -1.45425       -1.67845
H          1.56133       -1.03749        0.19641
