40
1sa1msa2eda_278.log	Energy: -1095273.6594548
S         -0.36012       -1.39172        0.78343
O          1.02308       -1.85323        1.04056
O         -0.84697       -0.39958        1.73819
O         -0.31702       -0.67690       -0.67726
O         -1.31150       -2.49960        0.53191
H          0.56362       -0.25320       -0.82484
H         -2.30971       -2.07900       -0.65999
S          3.37342       -0.01480       -0.31882
O          4.49916        0.88474       -0.40870
O          2.15714        0.31466       -1.07774
O          3.00360       -0.17225        1.21009
H          2.20109       -0.77212        1.29973
C          3.85757       -1.66231       -0.78610
H          4.08348       -1.64289       -1.85278
H          4.74021       -1.93283       -0.20667
H          3.02244       -2.33170       -0.57232
H         -5.08324       -1.28288       -1.37231
H         -4.51713       -2.18449        0.05974
H         -5.02326        0.27696        0.55035
H         -3.35378       -0.18776        0.91407
H         -4.20411        1.43603       -1.34382
H         -2.90693        1.59290       -0.31610
H         -3.12264       -2.27904       -2.13851
H         -2.65719       -0.73300       -1.63006
C         -4.28852       -1.36770       -0.62639
C         -4.07243       -0.03547        0.10112
N         -3.01593       -1.66585       -1.33529
N         -3.49458        0.92096       -0.83414
H          0.73710        1.99755        0.41256
H          1.01738        3.60886       -0.24222
H         -0.32041        3.78044        1.74461
H         -1.30214        4.26377        0.34417
H         -1.40422        1.56787        1.52622
H         -2.48952        2.75543        1.82451
H          0.44423        2.19214       -2.00934
H         -0.94011        1.70671       -1.30314
C          0.24668        2.84578       -0.09340
C         -0.81694        3.41257        0.83408
N         -0.30730        2.49564       -1.39831
N         -1.84018        2.40136        1.12922
