39
1sa1msa1dma1tma_06.log	Energy: -1050490.8238106
S         -0.88971       -1.92673       -0.56144
O          0.05303       -2.66495       -1.39430
O         -1.06947       -0.44076       -1.26773
O         -2.26891       -2.39416       -0.48999
O         -0.31842       -1.59891        0.78463
H          1.31684       -1.48365        0.71483
S          1.42470        1.88798       -0.21067
O          2.35590        1.42300        0.85432
O          0.14577        2.41606        0.30261
O          1.24033        0.84047       -1.26094
H         -0.18307        0.01464       -1.33407
C          2.25189        3.24331       -1.02500
H          2.43438        4.02149       -0.28358
H          3.19091        2.87367       -1.43696
H          1.60085        3.60955       -1.81903
N          2.35973       -1.33020        0.76152
C          2.98749       -1.80074       -0.49242
C          2.87299       -1.97585        1.98295
H          2.46187       -0.29309        0.83229
H          2.76378       -2.85844       -0.63064
H          2.55814       -1.23017       -1.31464
H          4.06552       -1.63638       -0.43311
H          2.69403       -3.05040        1.92201
H          3.94276       -1.78198        2.07986
H          2.34580       -1.56567        2.84443
N         -2.75596        0.89595        0.44230
C         -2.16032        0.79822        1.80353
H         -1.94039       -0.25068        2.00244
H         -1.23256        1.37102        1.80391
H         -2.87614        1.19963        2.52498
C         -2.96196        2.30737        0.03177
H         -1.99752        2.81386        0.06550
H         -3.35962        2.32091       -0.98380
H         -3.67483        2.77223        0.71675
C         -4.00096        0.09284        0.32821
H         -4.37993        0.17723       -0.69062
H         -3.75951       -0.95173        0.52591
H         -4.73495        0.47976        1.03876
H         -2.06323        0.47105       -0.22112
