28
1sa1msa1eda_07.log	Energy: -975736.9377227
S          2.38248        0.14369       -0.01574
O          3.77348        0.47156        0.07000
O          2.22372       -1.10097       -0.96678
O          1.91323       -0.37988        1.39354
O          1.43811        1.18002       -0.45502
H          0.94402       -0.63637        1.37850
H         -0.17688        1.31182       -0.97571
S         -1.29361       -1.50969       -0.00630
O         -2.43973       -0.65021       -0.39643
O         -0.62723       -1.02599        1.23663
O         -0.32422       -1.67129       -1.12669
H          1.25709       -1.35644       -1.06304
C         -1.95488       -3.11788        0.35562
H         -2.67762       -3.01004        1.16432
H         -2.43348       -3.49545       -0.54776
H         -1.12817       -3.76161        0.65625
H         -2.89928        2.00070        0.72019
H         -2.35026        3.64487        1.01594
H         -2.46660        3.15659       -1.39918
H         -0.80727        3.55845       -0.90160
H         -1.74893        0.74211       -1.11109
H         -1.01912        1.57510       -2.37635
H         -0.93666        1.11643        1.52484
H         -0.10806        2.55203        1.45995
C         -2.02388        2.65620        0.67072
C         -1.61403        2.82793       -0.79892
N         -1.02123        2.12685        1.56370
N         -1.11775        1.54090       -1.36359
