32
1sa1msa1a1eda_19.log	Energy: -1011241.1879556
S         -2.18371       -1.10273       -0.21084
O         -2.07287       -0.20939       -1.38181
O         -1.70856       -2.47697       -0.47748
O         -1.62939       -0.52623        1.02153
O         -3.77097       -1.22697        0.10924
H         -4.20807       -1.60687       -0.66531
S          2.76137       -0.10993       -0.12464
O          2.50182        0.75075       -1.30367
O          2.87452       -1.55940       -0.44489
O          1.76877        0.12477        0.96681
C          4.35226        0.38497        0.50942
H          5.09399        0.21031       -0.27022
H          4.30129        1.44416        0.76187
H          4.57367       -0.21293        1.39353
N          0.68774       -2.49599        0.88387
H          0.81320       -3.21572        1.58902
H          1.53665       -2.39770        0.27820
H         -0.17612       -2.66930        0.32362
H          0.58828       -1.57058        1.32483
H          0.09749        3.64181       -0.22937
H         -0.85671        3.24612       -1.68500
H         -2.28363        3.98942        0.24263
H         -2.68154        2.35728       -0.30327
H         -2.14568        2.96992        2.24926
H         -1.79010        1.48724        1.63289
H          0.84818        1.51673       -1.15757
H          0.15950        1.28801        0.29717
C         -0.64607        2.96244       -0.65111
C         -1.91374        2.96073        0.20068
N         -0.05775        1.60356       -0.66047
N         -1.60772        2.48457        1.54409
H         -0.73005        0.91840       -1.05903
