36
1sa1msa2dma_134.log	Energy: -1025811.4468888
S          0.17328        0.20528       -0.82667
O         -0.55951       -1.05281       -0.53621
O          1.40158        0.00081       -1.60032
O         -0.76225        1.08023       -1.77424
O          0.40761        0.99657        0.41307
H         -1.67221        1.09701       -1.39201
H          2.04207        1.26241        0.58549
S         -3.83423       -0.14875        0.19653
O         -4.89853       -0.84867       -0.49286
O         -3.15360        0.94737       -0.50621
O         -2.75942       -1.16131        0.74518
H         -1.87804       -1.11784        0.23180
C         -4.46566        0.49872        1.72674
H         -5.25097        1.21086        1.47186
H         -4.87166       -0.33147        2.30439
H         -3.64920        0.98869        2.25603
N          3.09312        1.25199        0.61043
C          3.57341        1.63161        1.94887
C          3.60372        2.08908       -0.49282
H          3.33680        0.22172        0.40692
H          3.28651        2.66181        2.16786
H          3.12249        0.96590        2.68585
H          4.66073        1.53836        1.98939
H          3.32674        3.13103       -0.32223
H          4.69109        1.99989       -0.54433
H          3.14825        1.73140       -1.41687
N          3.40823       -1.41406        0.01455
C          2.64136       -2.13877        1.02945
C          4.67546       -2.05935       -0.31247
H          2.82805       -1.32505       -0.82105
H          3.18681       -2.12469        1.97943
H          1.67223       -1.65320        1.16968
H          2.46073       -3.18623        0.75204
H          5.33085       -2.04987        0.56482
H          4.54681       -3.10434       -0.62938
H          5.17089       -1.51164       -1.11822
