41
1sa1msa1tma1eda_71.log	Energy: -1085216.9241619
S          2.64877        0.48596       -0.06222
O          2.57824        1.89737        0.38328
O          3.16093       -0.44321        0.94624
O          1.39699        0.05818       -0.71678
O          3.70894        0.46064       -1.29922
H          4.58474        0.66861       -0.94626
S         -3.01536       -0.36405       -0.04821
O         -2.05698       -0.61886       -1.15082
O         -3.38688        1.05276        0.12033
O         -2.52595       -0.99532        1.22508
C         -4.52107       -1.23445       -0.46037
H         -4.91280       -0.81072       -1.38560
H         -4.28826       -2.29152       -0.59118
H         -5.23118       -1.09444        0.35498
H         -0.46621       -3.91132        0.23539
H         -0.52453       -2.80802       -1.16854
H          1.57607       -4.32303       -1.05387
H          1.90514       -2.59411       -1.18458
H          2.74284       -4.26557        0.88022
H          2.85614       -2.61777        0.84759
H         -1.03285       -1.65096        0.93246
H          0.53681       -2.12205        1.46518
C          0.02303       -3.06983       -0.26150
C          1.50158       -3.36906       -0.52363
N         -0.04903       -1.90716        0.65181
N          2.22462       -3.40832        0.74858
H          0.36975       -1.09112        0.16853
N         -0.03873        2.72894        0.10801
C         -0.62293        2.01614        1.27616
H         -0.52597        0.94644        1.10540
H         -0.06794        2.30353        2.16972
H         -1.68412        2.25289        1.35593
C         -0.01932        4.19396        0.32445
H          0.55390        4.41186        1.22618
H          0.45283        4.67249       -0.53392
H         -1.04507        4.55077        0.43456
C         -0.72579        2.36392       -1.16378
H         -0.23056        2.88904       -1.98161
H         -0.65566        1.28625       -1.30592
H         -1.77796        2.64046       -1.08416
H          0.95683        2.41702        0.05478
