40
1sa1msa2eda_31.log	Energy: -1095297.0816661
S          3.08279       -0.16992        0.30950
O          3.00781        1.10295        1.06093
O          2.72598       -1.35284        1.09304
O          2.40428       -0.10158       -1.00542
O          4.64491       -0.32616       -0.11874
H          5.17320       -0.35165        0.69038
S         -2.59128        0.17389        0.42209
O         -2.95970       -0.83366       -0.58909
O         -2.98173        1.55955        0.12420
O         -1.11311        0.07396        0.74742
C         -3.41889       -0.27999        1.93791
H         -4.49277       -0.21452        1.76093
H         -3.13330       -1.29908        2.19992
H         -3.11532        0.41810        2.71802
H          0.92154       -3.68943       -0.87954
H          0.82206       -2.92326        0.72209
H         -1.01412       -4.68274        0.22696
H         -1.62366       -3.10257        0.71888
H         -2.22320       -4.38553       -1.66054
H         -2.54649       -2.80700       -1.28642
H          1.10976       -1.28552       -1.07458
H         -0.36111       -1.85509       -1.73250
C          0.30811       -3.06073       -0.23009
C         -1.10074       -3.63737       -0.08342
N          0.19162       -1.73296       -0.87778
N         -1.81814       -3.51314       -1.35105
H         -0.32787       -1.06986       -0.25901
H          1.42719        3.50361       -0.93837
H          1.11793        1.84681       -1.49238
H         -0.53364        3.64521       -2.38511
H         -1.29519        2.25906       -1.60262
H         -1.48416        4.92753       -0.76791
H         -2.17247        3.57534       -0.11469
H          1.49585        1.95388        0.87133
H          0.15360        3.02829        1.00362
C          0.70565        2.68291       -0.92536
C         -0.66616        3.13649       -1.42493
N          0.57316        2.24821        0.48838
N         -1.30021        3.99507       -0.42326
H         -0.08235        1.43881        0.57872
