35
1sa1msa1ma1eda_215.log	Energy: -1035884.1745052
S          2.51658        0.08656       -0.74520
O          3.62724       -0.44968       -1.50710
O          1.96192       -0.89587        0.26753
O          2.63140        1.40503       -0.13494
O          1.27573        0.26871       -1.80727
H          1.39074       -0.36983       -2.52322
S         -1.22562       -1.91915        0.25214
O         -1.72068       -1.02839       -0.79631
O         -1.12610       -1.35547        1.59866
O          0.14079       -2.56405       -0.16895
H          0.92814       -1.90396       -0.03308
C         -2.24094       -3.37319        0.29118
H         -3.24864       -3.04683        0.55011
H         -2.22381       -3.82872       -0.69848
H         -1.84367       -4.05170        1.04530
N          0.67337        0.81770        2.08152
H          0.00582        0.28433        2.63686
H          1.27789        0.12884        1.59827
C          1.45889        1.80139        2.84923
H          2.16693        2.26456        2.16244
H          0.78864        2.55519        3.26441
H          1.99942        1.30476        3.65577
H          0.11833        1.28543        1.27195
H         -2.28449        2.99420       -1.93676
H         -3.48726        3.66025       -0.82080
H         -1.36685        3.73689        0.29859
H         -2.34152        2.47215        1.06379
H         -1.06044        0.90169       -0.41369
H         -0.05085        2.12726       -0.75526
H         -4.35097        1.65357       -1.73960
H         -3.09731        0.76209       -1.18706
C         -2.82434        2.80477       -0.99265
C         -1.80929        2.74712        0.14602
N         -3.64735        1.59901       -1.01234
N         -0.71227        1.79307       -0.05866
