39
1sa1msa1dma1tma_87.log	Energy: -1050468.9597052
S         -0.99455       -2.01322        0.07301
O         -0.06803       -0.83441        0.06940
O         -1.88316       -2.04428        1.23157
O         -1.62436       -2.18234       -1.23484
O          0.07474       -3.23055        0.26959
H         -0.40168       -3.98560        0.64058
S          2.87359        0.48724        0.27171
O          4.07015        1.03687        0.86924
O          2.04338        1.33848       -0.58149
O          1.98350       -0.08952        1.45279
H          1.12878       -0.44297        1.06526
C          3.27862       -0.97927       -0.65598
H          3.86727       -0.66642       -1.51925
H          3.85979       -1.63756       -0.01067
H          2.34702       -1.45709       -0.96369
N         -2.07457        1.19507        1.40151
C         -3.40612        1.59388        1.83600
C         -1.02173        1.87141        2.14953
H         -1.97957        0.19008        1.53211
H         -3.57438        2.65042        1.59394
H         -4.15929        0.99838        1.31165
H         -3.56762        1.47033        2.91942
H         -1.07387        2.95098        1.96332
H         -1.09498        1.71788        3.23824
H         -0.04267        1.51892        1.81759
N         -1.07959        1.14910       -1.59814
C         -0.24433        0.60198       -2.69923
H          0.80150        0.76959       -2.44380
H         -0.45018       -0.46609       -2.77808
H         -0.50616        1.11573       -3.62687
C         -2.52521        0.90279       -1.83706
H         -2.67499       -0.17107       -1.95447
H         -3.07114        1.26218       -0.96622
H         -2.82564        1.44045       -2.73924
C         -0.79998        2.58287       -1.33743
H         -1.42057        2.89294       -0.49730
H          0.25507        2.68834       -1.08564
H         -1.04578        3.15628       -2.23417
H         -0.81366        0.61489       -0.74695
