40
1sa1msa2eda_313.log	Energy: -1095259.2145821
S         -0.96147        0.03380       -0.12966
O         -0.16780       -0.40807        1.02742
O         -1.60369        1.34871        0.02335
O          0.02972        0.23077       -1.35757
O         -1.96314       -0.99921       -0.54854
H          0.72080       -0.47775       -1.36792
H         -3.28184       -0.20749       -0.89060
S          2.93342       -1.59484       -0.07212
O          4.00708       -0.63219       -0.20785
O          1.92194       -1.65975       -1.13861
O          2.19724       -1.42451        1.31365
H          1.28125       -1.01939        1.19871
C          3.63008       -3.21435        0.12854
H          4.19079       -3.43211       -0.78096
H          4.29381       -3.19111        0.99279
H          2.81936       -3.92798        0.26981
H          1.71571        1.43158        0.63674
H          3.15258        2.12861        1.38737
H          1.19317        3.42339        1.98714
H          2.26001        4.40509        0.95749
H         -0.17639        3.04800        0.03172
H          0.10280        4.66388        0.09394
H          3.53383        1.61477       -0.94094
H          2.37331        2.70421       -1.37232
C          2.39832        2.29830        0.61110
C          1.58870        3.53929        0.96457
N          3.06950        2.47498       -0.66897
N          0.54527        3.76192       -0.03738
H         -5.66869       -1.50242       -0.77134
H         -6.43805       -1.13077        0.77047
H         -5.91902        1.00302       -0.11535
H         -4.61875        0.68849        1.06372
H         -4.44736        0.55941       -1.87412
H         -3.47511        1.39315       -0.78897
H         -4.81526       -2.79903        1.18662
H         -3.58522       -1.87759        0.59539
C         -5.47982       -1.10323        0.24291
C         -5.06991        0.36015        0.12565
N         -4.50834       -1.84825        1.02309
N         -4.04042        0.54731       -0.94132
