36
1sa1msa2dma_08.log	Energy: -1025830.3642348
S         -2.58523       -0.02014       -0.20423
O         -2.28804        1.26450       -0.87862
O         -2.24082       -1.19181       -1.04137
O         -2.08955       -0.10313        1.16810
O         -4.20247       -0.05956       -0.03942
H         -4.59483       -0.02110       -0.92218
S          2.60415        0.01394       -0.22294
O          2.37101        1.42742       -0.63798
O          2.62372       -0.95420       -1.32718
O          1.65304       -0.38057        0.86821
C          4.22736        0.00498        0.52006
H          4.94645        0.31041       -0.24024
H          4.23003        0.70470        1.35583
H          4.43927       -1.00784        0.86317
N         -0.05565       -2.38959        0.15014
C         -0.61301       -2.96716        1.39173
C          0.64888       -3.35701       -0.71715
H         -0.83853       -1.95019       -0.38061
H          0.20357       -3.35467        2.00305
H         -1.14760       -2.17621        1.91794
H         -1.30357       -3.77180        1.13356
H          1.44050       -3.84042       -0.14232
H         -0.06417       -4.10236       -1.07349
H          1.09728       -2.81211       -1.54719
H          0.59986       -1.61064        0.40626
N         -0.01398        2.47511        0.07134
C         -0.05795        3.85088       -0.46121
C         -0.05407        2.38864        1.54795
H         -0.82684        1.94794       -0.31662
H          0.80808        4.40509       -0.09618
H         -0.03102        3.80442       -1.54982
H         -0.97982        4.33517       -0.13565
H          0.78634        2.95285        1.95615
H         -1.00071        2.79424        1.90702
H          0.02888        1.33846        1.82329
H          0.86930        2.01132       -0.25973
