24
1sa1msa2a_52.log	Energy: -927173.1407359
S         -1.20633       -0.85747       -0.19927
O         -0.70532        0.13068       -1.20172
O         -1.00545       -0.33583        1.18159
O         -2.58637       -1.27885       -0.45217
O         -0.32414       -2.16466       -0.35672
H          0.63038       -1.90601       -0.33211
S          2.57831        0.23876        0.01703
O          3.94413        0.64089       -0.22648
O          2.18662       -1.14883       -0.26179
O          1.63404        1.20872       -0.80504
H          0.73771        0.78229       -0.98184
C          2.14647        0.59049        1.70623
H          2.77505       -0.04309        2.33335
H          2.35329        1.64414        1.89359
H          1.08877        0.35291        1.84178
N         -3.57721        0.59071        1.29022
H         -4.24709        0.84527        2.00886
H         -3.43305        1.34948        0.53790
H         -2.63247        0.37235        1.66578
H         -3.83575       -0.26804        0.78775
N         -2.88518        2.22615       -0.81912
H         -3.54994        2.27802       -1.58558
H         -2.10101        1.64964       -1.14288
H         -2.52772        3.16456       -0.66701
