24
1sa1msa2a_18.log	Energy: -927175.9964938
S         -1.79789       -0.84268        0.03828
O         -1.87631       -0.14006        1.32766
O         -2.13363       -0.03330       -1.13752
O         -0.53360       -1.60531       -0.13969
O         -2.95513       -1.96663        0.18440
H         -2.97066       -2.49203       -0.62712
S          2.41966       -0.03536       -0.00787
O          3.80029        0.09097        0.40102
O          1.59773        1.18365       -0.07016
O          1.73108       -1.07697        0.95732
H          0.79366       -1.28848        0.64133
C          2.30240       -0.81089       -1.60401
H          2.72247       -0.11651       -2.33214
H          2.87675       -1.73662       -1.57163
H          1.24730       -1.00613       -1.80378
N         -0.54672        2.25094        1.28817
H         -1.05047        2.70170        0.46370
H         -0.48412        2.86803        2.09149
H         -1.07678        1.38074        1.50873
H          0.39084        1.95501        0.96237
N         -1.89211        2.93828       -1.04190
H         -2.77243        3.44323       -1.05268
H         -2.09169        1.95619       -1.25565
H         -1.31924        3.30567       -1.79534
