23
1sa1msa1ma_04.log	Energy: -916338.8630031
S         -1.83567       -0.73405       -0.04946
O         -1.16555       -1.90591       -0.60286
O         -1.03730       -0.05861        1.01829
O         -2.35121        0.25627       -1.01220
O         -3.18376       -1.26113        0.67453
H         -2.99282       -2.12121        1.07288
S          2.28792       -0.14131        0.03228
O          3.67190        0.08284        0.38082
O          1.59525        0.89310       -0.75817
O          1.48711       -0.37833        1.36946
H          0.48584       -0.31260        1.22901
C          2.11447       -1.67705       -0.84212
H          2.62855       -1.56163       -1.79695
H          2.58575       -2.45401       -0.24019
H          1.04906       -1.87549       -0.98401
N         -0.69883        2.37793       -0.73500
H          0.20856        1.86663       -0.68806
H         -0.66522        3.01551       -1.52753
C         -0.98099        3.08149        0.53962
H         -1.93984        3.59321        0.46168
H         -1.02828        2.32516        1.32177
H         -0.18475        3.79630        0.74567
H         -1.42351        1.63588       -0.91836
