27
1sa1msa1a1ma_18.log	Energy: -951844.5346830
S         -2.72441       -0.17414        0.08764
O         -2.80255       -1.45650        0.79406
O         -2.59105        1.03321        0.91032
O         -1.69863       -0.21996       -1.00218
O         -4.15272        0.04265       -0.64746
H         -4.44171       -0.80756       -1.00481
S          2.63325       -0.30099       -0.11652
O          2.61911        0.89702       -0.96954
O          2.53261       -1.59735       -0.81662
O          1.56284       -0.19816        0.95944
C          4.18254       -0.30994        0.76607
H          4.98023       -0.39880        0.02800
H          4.27162        0.62696        1.31588
H          4.19017       -1.16161        1.44607
N         -0.06895       -2.17936        0.00811
H          0.42997       -1.53814        0.66214
H         -0.65641       -1.56041       -0.59432
H          0.67388       -2.62669       -0.53467
H         -0.68665       -2.82344        0.49661
N         -0.06834        1.85209        0.06718
H         -0.27494        1.42925       -0.84280
H         -0.97885        1.84382        0.56107
C          0.55986        3.18378       -0.05330
H          0.71505        3.59203        0.94515
H          1.51640        3.05818       -0.55963
H         -0.09545        3.84345       -0.62162
H          0.56493        1.16555        0.53723
