38
1sa1msa1dma1eda_09.log	Energy: -1060565.3004904
S          2.60514       -0.77575       -0.01700
O          3.23943        0.36908        0.63127
O          2.53037       -2.00950        0.76689
O          1.29145       -0.44446       -0.65347
O          3.49879       -1.11275       -1.34414
H          4.40524       -1.27920       -1.05238
S         -2.89962        0.20246       -0.17267
O         -2.07932        0.31337        1.05544
O         -2.90995       -1.18402       -0.71913
O         -2.52927        1.22568       -1.19104
C         -4.59071        0.55663        0.26981
H         -4.91193       -0.18104        1.00530
H         -4.63093        1.56204        0.68924
H         -5.19769        0.49062       -0.63325
N         -0.57137       -2.34810        0.11932
C         -0.15357       -3.55828       -0.61712
C         -0.58878       -2.50652        1.59085
H          0.09138       -1.58405       -0.12607
H         -0.83743       -4.37587       -0.38355
H         -0.18464       -3.34450       -1.68560
H          0.86519       -3.81075       -0.31995
H         -1.25490       -3.33134        1.85068
H          0.42870       -2.70565        1.92895
H         -0.96546       -1.57633        2.01664
H         -1.50749       -2.01518       -0.20969
H         -0.66498        3.37629        0.69309
H         -0.13597        1.82821        1.36515
H          1.53374        3.68136        1.83612
H          2.23185        2.38173        0.86068
H          1.46887        5.03428       -0.10062
H          2.81080        4.15298       -0.42227
H         -0.93576        1.77114       -0.98332
H          0.47083        2.67982       -1.36183
C          0.11018        2.60642        0.64264
C          1.50033        3.19516        0.85293
N          0.04902        2.00739       -0.71312
N          1.81281        4.09412       -0.26201
H          0.60239        1.12471       -0.74305
