41
1sa1msa1tma1eda_207.log	Energy: -1085201.5013032
S          0.07009       -1.79851       -0.40290
O          1.25038       -2.31132       -1.09303
O          0.27024       -1.23608        0.93099
O         -0.73794       -0.87757       -1.27381
O         -0.91120       -3.06979       -0.13391
H         -0.89147       -3.63880       -0.91534
S         -3.30404        0.53068        0.47694
O         -4.66690        0.99940        0.59743
O         -2.22976        1.50489        0.26318
O         -3.26994       -0.51884       -0.71088
H         -2.31905       -0.70980       -0.96968
C         -2.87559       -0.44498        1.90123
H         -2.92231        0.21895        2.76560
H         -3.60844       -1.24651        1.99158
H         -1.86472       -0.83741        1.76696
H          5.61449        0.34993        1.44290
H          4.31334        0.89356        2.50989
H          3.99540       -1.44409        1.81315
H          2.66422       -0.43727        1.26025
H          4.83383       -1.42997       -0.42732
H          3.21581       -1.64099       -0.59954
H          4.84451        2.48789        0.71881
H          4.32319        1.37857       -0.36996
C          4.54138        0.60598        1.47767
C          3.73034       -0.63497        1.11622
N          4.20120        1.71502        0.58279
N          3.93127       -0.98636       -0.28990
N          0.41308        1.70762       -0.84652
C         -0.20182        2.88451       -1.50976
H         -0.42181        2.62843       -2.54679
H         -1.12414        3.13198       -0.98715
H          0.50790        3.71322       -1.47173
C          0.77578        1.99244        0.57190
H         -0.06008        2.51019        1.03908
H          0.93711        1.03562        1.06686
H          1.69920        2.57360        0.59056
C          1.57569        1.19588       -1.62077
H          2.07705        0.40340       -1.06605
H          1.21311        0.80441       -2.57094
H          2.27602        2.01814       -1.77481
H         -0.29263        0.94965       -0.83443
