32
1sa1msa1a1eda_46.log	Energy: -1011239.7631075
S         -2.54400       -0.99213       -0.07949
O         -2.11454       -2.24490       -0.74660
O         -1.67058       -0.71271        1.09604
O         -2.75584        0.16306       -0.93552
O         -4.01997       -1.30887        0.51937
H         -3.99615       -2.17396        0.94895
S          2.87655       -0.25575       -0.12000
O          2.81863        1.04370       -0.79850
O          2.65659       -1.43888       -1.00036
O          1.95055       -0.31598        1.06686
C          4.52297       -0.44055        0.54170
H          5.22355       -0.41590       -0.29336
H          4.71118        0.38801        1.22465
H          4.58381       -1.39466        1.06517
N          0.47242       -2.59612        0.09761
H         -0.46837       -2.55148       -0.35949
H          0.64523       -3.52780        0.46331
H          1.26202       -2.29251       -0.52516
H          0.47760       -1.91150        0.86313
H          0.78706        2.49744       -0.80921
H         -0.37577        1.23397       -1.24680
H         -1.36695        3.51157       -1.60544
H         -2.25907        2.55788       -0.41898
H         -0.43817        4.77946        0.18099
H         -1.96328        4.53242        0.71725
H          0.80164        0.99396        0.97271
H         -0.17673        2.31477        1.46029
C         -0.18263        2.06060       -0.56313
C         -1.31424        3.07824       -0.59913
N         -0.08593        1.51993        0.81877
N         -1.10108        4.06534        0.46413
H         -0.84151        0.82737        1.00352
