33
1sa1msa1ma1dma_114.log	Energy: -1001152.6782690
S          1.21244        0.63414       -0.51659
O          2.23060        0.82093       -1.54462
O         -0.17028        0.39188       -1.04112
O          1.55718       -0.68796        0.28151
O          1.16046        1.75008        0.47415
H          2.59586       -0.82175        0.25367
H         -0.33840        2.07300        0.88128
S         -2.97254       -0.90298        0.05699
O         -3.75958       -0.07754       -0.84680
O         -2.57232       -0.26300        1.32506
O         -1.72287       -1.51689       -0.65026
H         -1.00076       -0.78886       -0.82998
C         -3.85690       -2.39006        0.44734
H         -4.77205       -2.08971        0.95800
H         -4.08563       -2.90179       -0.48713
H         -3.23153       -3.00557        1.09289
N         -1.37858        2.24180        1.04831
H         -1.81214        1.31366        1.22789
C         -1.99243        2.86533       -0.15038
H         -3.06588        2.97429        0.00085
H         -1.52528        3.83438       -0.32470
H         -1.80084        2.20498       -0.99491
H         -1.49376        2.81845        1.87828
N          4.13885       -0.79888        0.07423
C          4.83126       -2.08270        0.13400
C          4.68277        0.20193        0.99337
H          4.16122       -0.42441       -0.87263
H          4.68914       -2.52317        1.12525
H          4.40429       -2.76250       -0.60664
H          5.91065       -1.98607       -0.05022
H          4.53334       -0.13847        2.02217
H          5.75583        0.37644        0.83365
H          4.14199        1.14130        0.85868
