32
1sa1msa1a1eda_42.log	Energy: -1011239.7520571
S         -2.81535       -0.05062       -0.13886
O         -2.63946        0.99504       -1.14361
O         -2.97977       -1.41709       -0.68099
O         -1.80635       -0.01023        0.95030
O         -4.19405        0.28268        0.65994
H         -4.89833        0.38528        0.00559
S          2.16467       -1.30541       -0.15581
O          1.52069       -1.01881        1.15095
O          2.20357       -0.10318       -1.03154
O          1.56510       -2.49743       -0.81892
C          3.86648       -1.73046        0.16438
H          4.34766       -1.94341       -0.79029
H          4.34384       -0.88209        0.65521
H          3.88370       -2.60889        0.80963
N         -0.82529       -2.68967        0.45693
H         -0.99073       -3.55271        0.96565
H          0.02767       -2.76805       -0.15179
H         -1.67167       -2.40149       -0.08342
H         -0.62815       -1.92101        1.10984
H          0.35987        2.79307        1.64687
H          1.55913        1.47959        1.56313
H          2.63313        3.69800        1.07282
H          2.69553        2.61234       -0.32294
H          0.89570        4.90427       -0.02805
H          1.84956        4.49847       -1.29610
H         -0.51617        0.99099        0.37233
H         -0.16989        2.25791       -0.68080
C          1.04651        2.25342        0.98881
C          2.02209        3.20339        0.30578
N          0.24226        1.56828       -0.04675
N          1.27594        4.12319       -0.55120
H          0.87132        0.93564       -0.58866
