33
1sa1msa1a1tma_42.log	Energy: -1001152.4291854
S          2.35734       -1.03847       -0.13173
O          3.38704       -1.11967       -1.15170
O          0.99257       -0.68184       -0.61430
O          2.13022       -2.56367        0.41351
O          2.69360       -0.22330        1.05358
H          2.95628       -3.04461        0.27171
H          1.25826        0.51598        1.63053
S         -2.21409       -1.08904       -0.00945
O         -2.57418        0.14223       -0.70069
O         -1.75749       -0.94298        1.38031
O         -1.17780       -1.92656       -0.83480
H         -0.24047       -1.50646       -0.78208
C         -3.58589       -2.21265       -0.04004
H         -4.40455       -1.72749        0.49198
H         -3.85276       -2.39140       -1.08130
H         -3.28805       -3.13534        0.45656
N          0.32637        0.95552        1.80930
H          0.30071        1.36254        2.73937
H         -0.40528        0.23062        1.72570
H          0.15131        1.70937        1.05046
N         -0.09475        2.87858       -0.11608
C         -1.44085        3.41848        0.07097
H         -2.17072        2.61374       -0.04740
H         -1.53504        3.84106        1.07660
H         -1.66614        4.21191       -0.65978
C          0.92653        3.90318        0.08782
H          0.82897        4.33312        1.08977
H          1.91852        3.45298       -0.00662
H          0.84050        4.71822       -0.64860
C          0.03853        2.26454       -1.44157
H          1.01660        1.78876       -1.53261
H         -0.72642        1.49549       -1.56071
H         -0.07663        3.01803       -2.23745
