32
1sa1msa1a1eda_159.log	Energy: -1011230.4873128
S          2.23865       -0.48483       -0.44195
O          1.74933        0.76833       -1.06177
O          2.59491       -0.37671        0.96520
O          1.34684       -1.62807       -0.78295
O          3.64602       -0.82888       -1.16809
H          3.46929       -1.01452       -2.10024
S         -1.83095       -1.41223        0.31931
O         -3.26552       -1.37950        0.11799
O         -1.21908       -0.47577        1.26414
O         -1.16787       -1.22571       -1.10911
H         -0.15936       -1.31956       -1.04275
C         -1.31088       -3.04669        0.79141
H         -1.71454       -3.23801        1.78608
H         -1.71090       -3.75510        0.06625
H         -0.21957       -3.06112        0.80136
N          1.51321        1.83617        2.73562
H          1.04976        1.43815        3.54670
H          2.20126        2.50102        3.07333
H          2.01680        1.07375        2.27387
H         -1.35945        3.75321        0.54778
H          0.06575        3.87676       -0.50760
H         -2.02504        3.61429       -1.86516
H         -0.93824        2.24045       -2.08069
H         -3.47265        2.19965       -0.65210
H         -2.72374        0.99845       -1.49618
H          0.35923        2.21341        1.38013
H         -0.89814        1.33939        0.67537
C         -0.74350        3.21937       -0.18103
C         -1.59372        2.74014       -1.35998
N         -0.16093        2.03829        0.48332
N         -2.57816        1.78517       -0.87738
H          0.52895        1.56888       -0.14045
