30
1sa1msa1a1dma_91.log	Energy: -976492.1599394
S         -1.86923       -0.39877       -0.66081
O         -0.87166        0.11437       -1.58293
O         -3.09887       -0.97640       -1.16076
O         -1.22731       -1.45890        0.29698
O         -2.21951        0.80940        0.30775
H         -0.29118       -1.15167        0.61326
H         -3.03673        0.53757        0.87149
S          2.31203       -0.94416        0.31302
O          1.02224       -0.63603        1.02990
O          3.27756       -1.68090        1.11470
O          2.84674        0.33376       -0.27245
H          1.99344        1.55179       -0.04504
C          1.86016       -1.94779       -1.09143
H          1.43132       -2.87917       -0.71954
H          1.13371       -1.39804       -1.69198
H          2.77005       -2.14771       -1.65776
N         -4.33497       -0.14574        1.55983
H         -4.65296       -0.74935        0.80393
H         -5.10349        0.45657        1.83490
H         -4.09478       -0.73774        2.34885
N          1.49097        2.50614        0.07149
C          0.57775        2.46151        1.23908
C          0.81858        2.84854       -1.20517
H          2.23959        3.17333        0.25394
H         -0.23541        1.77262        1.01494
H          1.13116        2.09338        2.10228
H          0.18185        3.46206        1.42619
H          0.08355        2.07137       -1.41995
H          0.33233        3.82179       -1.11417
H          1.56823        2.87116       -1.99639
