41
1sa1msa1tma1eda_156.log	Energy: -1085205.2182363
S          0.53222       -1.08543        0.94158
O          1.76572       -1.88295        1.08481
O         -0.62601       -1.62506        1.68067
O          0.80981        0.32136        1.68301
O          0.20378       -0.75936       -0.46107
H          1.62410        0.71299        1.28653
H         -2.30945       -1.17747       -0.91085
S          3.85290        0.35460       -0.57637
O          5.17352        0.85299       -0.88680
O          2.98406        1.16299        0.29097
O          4.02197       -1.08426        0.05245
H          3.16300       -1.40955        0.46916
C          2.96052        0.04154       -2.08341
H          2.83385        1.00394       -2.58122
H          3.56096       -0.63216       -2.69454
H          1.99171       -0.39262       -1.82355
H         -4.89011        0.11929       -1.13010
H         -5.90424       -1.29125       -0.81503
H         -4.41135       -0.81350        1.12098
H         -4.02127       -2.38447        0.40702
H         -2.55108        0.20354        0.03842
H         -1.96117       -1.24002        0.71857
H         -4.45535       -2.54905       -2.25759
H         -4.57303       -1.11554       -3.03736
C         -4.87046       -0.96788       -0.99878
C         -4.02526       -1.30587        0.22538
N         -4.25510       -1.55722       -2.18362
N         -2.63556       -0.86615        0.00836
N         -2.39233        1.89133        0.23720
C         -2.10293        2.07329        1.66270
H         -2.94757        1.71235        2.25796
H         -1.21000        1.50379        1.93049
H         -1.93300        3.13416        1.90616
C         -1.24446        2.29421       -0.58106
H         -0.37395        1.69487       -0.30952
H         -1.46790        2.11437       -1.63661
H         -1.01086        3.36204       -0.44552
C         -3.59393        2.62193       -0.15105
H         -3.80865        2.44544       -1.20972
H         -4.44708        2.27935        0.44344
H         -3.48230        3.70786        0.00096
