33
1sa1msa1a1tma_55.log	Energy: -1001152.8225460
S         -0.51791       -1.42888        0.20500
O         -0.73363       -0.26793       -0.70368
O          0.23343       -0.99773        1.42146
O         -1.73223       -2.17420        0.50592
O          0.43348       -2.43213       -0.59176
H          1.23145       -1.92980       -0.87600
S          2.83292        0.46198       -0.27329
O          2.24624        1.70704       -0.74225
O          2.58425       -0.75396       -1.05696
O          2.46149        0.19537        1.23364
H          1.56320       -0.30018        1.31340
C          4.58839        0.67127       -0.11179
H          4.97591        0.87426       -1.11049
H          4.77223        1.51537        0.55245
H          5.01071       -0.24854        0.29093
N         -0.54893        2.19205        1.03438
H         -0.34601        1.36056        1.58628
H         -0.15910        2.97915        1.54447
H          0.02223        2.08426        0.19711
N         -3.16607        0.71624       -0.30837
C         -3.48891        0.60487        1.13711
H         -3.26392       -0.41343        1.45764
H         -2.86044        1.31611        1.67271
H         -4.54810        0.83041        1.28297
C         -3.32475        2.10364       -0.80207
H         -2.66432        2.73806       -0.20903
H         -3.02973        2.13935       -1.85153
H         -4.36973        2.40529       -0.69617
C         -3.92245       -0.27426       -1.11339
H         -3.61765       -0.18353       -2.15623
H         -3.67089       -1.27048       -0.74637
H         -4.99245       -0.07821       -1.01286
H         -2.14648        0.44902       -0.41887
