30
1sa1msa1a1dma_82.log	Energy: -976496.9815089
S         -1.24756        1.30760        0.14535
O         -0.91665        0.25992        1.12487
O         -0.31282        1.05897       -1.13016
O         -2.64594        1.16273       -0.35343
O         -0.93253        2.68576        0.56543
H         -2.94773       -0.35243       -0.40916
H          0.72228        2.92188        0.20081
S          2.37643       -0.90423       -0.04213
O          2.75825        0.52323        0.21666
O          3.47954       -1.74153       -0.49407
O          1.16624       -0.97068       -0.93550
H          0.27609        0.22388       -1.02184
C          1.81983       -1.52313        1.53739
H          0.96159       -0.92483        1.84725
H          1.54528       -2.57073        1.40528
H          2.64571       -1.43607        2.24407
N          1.68871        2.86437       -0.20372
H          2.30372        3.56565        0.19901
H          1.60741        3.00253       -1.20835
H          2.08578        1.87913       -0.03414
N         -3.06821       -1.42538       -0.41890
C         -3.22529       -1.88941        0.98140
C         -1.89989       -2.02320       -1.11843
H         -3.91819       -1.61907       -0.94652
H         -2.34216       -1.56255        1.53065
H         -4.11146       -1.42067        1.40955
H         -3.32334       -2.97635        0.99984
H         -0.99467       -1.79936       -0.55130
H         -2.03993       -3.10190       -1.20555
H         -1.81263       -1.56882       -2.10527
