38
1sa1msa1dma1eda_220.log	Energy: -1060548.5472928
S          2.55955        0.34334       -0.31152
O          2.88909        0.48413        1.10377
O          2.28067       -1.06848       -0.70989
O          1.54905        1.27536       -0.83369
O          3.88816        0.75723       -1.15287
H          4.63871        0.27966       -0.77484
S         -0.68024       -2.16969        0.28840
O         -1.94242       -2.85481        0.07271
O         -0.68663       -0.97582        1.13311
O         -0.10851       -1.80209       -1.13919
H          0.84535       -1.44017       -1.05025
C          0.53335       -3.29827        0.93410
H          0.21843       -3.56743        1.94274
H          0.56016       -4.17443        0.28646
H          1.49516       -2.78209        0.94454
N         -0.46710        2.00198        0.91475
C          0.08303        1.79488        2.26965
C         -0.63292        3.41922        0.54745
H          0.16800        1.57256        0.21562
H         -0.59359        2.24188        3.00165
H          0.17780        0.72441        2.43974
H          1.07008        2.25468        2.33049
H         -1.30286        3.90306        1.26156
H          0.34089        3.91079        0.55748
H         -1.05797        3.45250       -0.45510
H         -1.39751        1.52272        0.80446
H         -2.99608       -0.70278       -0.56670
H         -4.54596        0.11827       -0.63926
H         -3.38020        0.61727       -2.64217
H         -3.42336        2.10575       -1.69179
H         -1.08050        0.32085       -1.74237
H         -1.20003        1.73151       -2.54618
H         -3.83118        1.58773        1.01328
H         -3.09649        0.19952        1.47411
C         -3.46485        0.28412       -0.53996
C         -2.98386        1.09984       -1.73481
N         -3.12211        0.91049        0.74885
N         -1.53101        1.23360       -1.72698
