35
1sa1msa1ma1eda_32.log	Energy: -1035901.4830738
S         -2.86553       -0.01391       -0.28576
O         -2.60003        0.97714       -1.34916
O         -2.88932       -1.40891       -0.78008
O         -2.03792        0.16275        0.91163
O         -4.37134        0.29640        0.24349
H         -4.97577        0.22570       -0.50768
S          2.53810       -0.86775       -0.16479
O          2.50653       -2.04350        0.71862
O          3.14614        0.35395        0.38312
O          1.14579       -0.59275       -0.71006
C          3.50202       -1.31679       -1.60086
H          4.51868       -1.52310       -1.26484
H          3.06114       -2.20469       -2.05419
H          3.49252       -0.48152       -2.30142
N         -0.56299       -2.47721        0.28385
H          0.09508       -1.74334       -0.08145
H         -1.50708       -2.23660       -0.08918
C         -0.53510       -2.50095        1.76720
H         -1.16578       -3.31425        2.12693
H          0.49883       -2.63209        2.08504
H         -0.92913       -1.54650        2.11288
H         -0.25836       -3.36619       -0.10601
H         -0.57263        3.61468        0.38148
H         -0.77045        2.09133        1.28361
H          1.27786        3.53432        1.97224
H          1.63614        1.85178        1.56843
H          2.62297        4.11657        0.23260
H          2.94797        2.51701       -0.01678
H         -0.98670        1.72883       -1.07637
H          0.57558        2.40857       -1.29233
C         -0.11831        2.64665        0.60891
C          1.30063        2.80690        1.15437
N         -0.04680        1.88983       -0.66617
N          2.20848        3.20758        0.07664
H          0.39281        0.94917       -0.54244
