36
1sa1msa2dma_99.log	Energy: -1025813.5054273
S          0.08608       -0.35687        0.66437
O          0.48245       -1.32772       -0.38768
O         -1.18081       -0.74164        1.32463
O          1.18646       -0.02537        1.57413
O         -0.20436        1.03791       -0.08846
H         -1.08822        0.99164       -0.52906
S         -3.82280        0.12431       -0.41125
O         -5.07831       -0.00479       -1.11349
O         -2.71192        0.81285       -1.08183
O         -3.35736       -1.32969        0.00703
H         -2.46715       -1.26626        0.46569
C         -4.07367        0.92561        1.15914
H         -4.35004        1.96054        0.95487
H         -4.87569        0.40436        1.68147
H         -3.13639        0.87140        1.71599
N          3.18570       -1.23630       -0.46084
C          3.68412       -1.94877        0.73189
C          3.80770       -1.64630       -1.73042
H          2.14265       -1.35809       -0.50873
H          4.75450       -1.76413        0.84671
H          3.13779       -1.57004        1.59655
H          3.50429       -3.01969        0.62102
H          4.88195       -1.45387       -1.69111
H          3.63297       -2.70997       -1.90241
H          3.36167       -1.07204       -2.54329
H          3.31248       -0.17570       -0.30538
N          3.26382        1.46879        0.02455
C          2.80042        2.20668       -1.15058
C          4.43766        2.06900        0.65124
H          2.50317        1.40862        0.70325
H          3.56171        2.15692       -1.93662
H          1.87490        1.75658       -1.51598
H          2.60349        3.26532       -0.93079
H          5.28745        2.01932       -0.03773
H          4.27922        3.12349        0.91931
H          4.69354        1.51530        1.55825
