32
1sa1msa1a1eda_119.log	Energy: -1011231.8404114
S         -1.72145       -0.79386        0.60443
O         -0.52219       -0.91242       -0.29539
O         -2.17402       -2.07562        1.13156
O         -1.51387        0.28102        1.59833
O         -2.86319       -0.21345       -0.35083
H         -0.32802        1.33485        1.16345
H         -3.30062       -0.99049       -0.83044
S          2.78189       -0.58386       -0.17645
O          2.71256        0.42383        0.89660
O          2.63830       -0.07921       -1.53417
O          1.78448       -1.75151        0.11505
H          0.79160       -1.45543       -0.00825
C          4.31838       -1.45392       -0.00570
H          4.36759       -1.87890        0.99622
H          4.35504       -2.23165       -0.76775
H          5.11240       -0.72256       -0.15847
N         -3.88640       -2.49830       -1.31941
H         -4.89007       -2.62114       -1.39488
H         -3.55522       -3.01129       -0.50360
H         -3.45122       -2.89805       -2.14386
H          0.95052        2.76265       -1.11086
H          0.06937        1.21820       -1.16321
H         -1.40784        3.12661       -1.87549
H         -2.00602        2.31622       -0.42753
H         -0.72998        4.94539       -0.52975
H         -2.05355        4.46748        0.30487
H          1.32348        1.56202        0.90751
H          0.30392        2.89468        1.22881
C          0.11582        2.19826       -0.68703
C         -1.20236        2.95118       -0.81228
N          0.39343        1.98989        0.75846
N         -1.13644        4.17565       -0.00957
