28
1sa1msa1eda_51.log	Energy: -975731.2953270
S          2.26162        0.61948        0.01649
O          1.74049        1.80871        0.71642
O          2.58808       -0.53846        0.84231
O          1.40133        0.27727       -1.15535
O          3.65707        1.16081       -0.60386
H          4.19885        0.39459       -0.83643
S         -0.89255       -2.00255        0.00451
O         -1.96739       -2.92221       -0.29999
O         -1.24664       -0.63263        0.41088
O          0.04989       -1.92207       -1.25816
H          0.63151       -1.09441       -1.22696
C          0.15819       -2.68545        1.26254
H         -0.43029       -2.74518        2.17885
H          0.46247       -3.67916        0.93352
H          1.02086       -2.02526        1.38234
H         -1.69490        1.52637        1.56037
H         -1.55319        3.27842        1.31583
H         -3.91679        2.35035        1.06192
H         -3.34626        3.31033       -0.30463
H         -3.25360        0.36672       -0.29850
H         -4.24737        1.32140       -1.20469
H          0.19903        2.09008        0.16497
H         -0.91602        1.09401       -0.55447
C         -1.79756        2.33143        0.83115
C         -3.20012        2.36243        0.22709
N         -0.78170        2.05618       -0.21491
N         -3.35275        1.28067       -0.73305
H         -0.86404        2.68105       -1.01497
