33
1sa1msa1a1tma_52.log	Energy: -1001154.2731219
S          1.88987       -1.21449       -0.03802
O          3.16668       -0.51589        0.06280
O          1.21672       -1.58618        1.20524
O          0.96235       -0.50073       -0.98248
O          2.18501       -2.65042       -0.74388
H          2.85926       -2.51501       -1.42290
S         -2.34158       -0.63801       -0.10752
O         -3.73159       -0.65065       -0.51041
O         -1.77470        0.62302        0.39532
O         -1.48088       -1.12116       -1.33679
H         -0.48871       -0.93555       -1.18875
C         -2.05075       -1.88925        1.12001
H         -2.60429       -1.60072        2.01464
H         -2.42493       -2.83393        0.72522
H         -0.97533       -1.93685        1.31310
N          0.36375        1.05693        2.46278
H          0.77337        0.14338        2.26360
H         -0.64402        0.92497        2.45075
H          0.63501        1.31117        3.40702
N          0.36395        2.34611       -0.31520
C         -0.43143        3.39899        0.36403
H         -1.48846        3.16875        0.23440
H         -0.17652        3.37818        1.42254
H         -0.18706        4.36561       -0.08102
C          1.82329        2.53892       -0.10796
H          2.00786        2.53545        0.96541
H          2.35688        1.70535       -0.56392
H          2.11476        3.48985       -0.55902
C          0.01445        2.24147       -1.75500
H          0.60199        1.43518       -2.18994
H         -1.04743        2.01001       -1.83564
H          0.23651        3.19510       -2.23821
H          0.10243        1.45320        0.13341
