36
1sa1msa1ma1tma_91.log	Energy: -1025809.5104447
S          0.31970       -1.99513       -0.30557
O          0.62287       -0.69430       -1.04581
O         -0.73213       -2.75766       -0.95495
O          1.56469       -2.67847        0.02251
O         -0.26243       -1.47221        1.11382
H         -0.47932       -0.51575        1.05371
S         -1.00512        2.10099       -0.07099
O         -0.53957        3.47328       -0.12799
O         -0.42833        1.25222        0.99129
O         -0.72228        1.41198       -1.46063
H         -0.30644        0.49009       -1.33801
C         -2.76716        2.03546        0.05204
H         -3.03776        2.47070        1.01492
H         -3.17750        2.62429       -0.76893
H         -3.05147        0.97431       -0.02586
N         -3.29373       -1.16172       -0.29151
H         -4.05233       -1.21538       -0.96421
C         -3.73064       -1.67874        1.00670
H         -4.16070       -2.68902        0.96785
H         -2.87092       -1.70747        1.68048
H         -4.47849       -1.00599        1.44037
H         -2.54408       -1.74839       -0.65611
N          2.73137        0.41683        0.17531
C          3.85028       -0.35122       -0.42756
H          3.65978       -1.41189       -0.25912
H          3.87287       -0.15289       -1.49949
H          4.78946       -0.03907        0.03445
C          2.80780        1.86658       -0.12844
H          2.78545        2.00259       -1.21014
H          1.94865        2.36874        0.31658
H          3.73595        2.27059        0.28200
C          2.61423        0.16001        1.63498
H          1.74025        0.69425        2.00678
H          2.48140       -0.91191        1.78425
H          3.52264        0.51314        2.12842
H          1.85625        0.03821       -0.28191
