32
1sa1msa1a1eda_107.log	Energy: -1011230.2426719
S          2.16021       -1.10707       -0.53432
O          2.50634       -1.94305       -1.67048
O          2.99154        0.07413       -0.28498
O          0.71070       -0.72450       -0.46019
O          2.32594       -2.05931        0.79099
H          2.83722       -2.83206        0.51735
S         -2.47001       -0.70505        0.25932
O         -2.93239        0.11035       -0.86016
O         -1.82586       -0.00271        1.36686
O         -1.54520       -1.87647       -0.24974
H         -0.59345       -1.54181       -0.37663
C         -3.83103       -1.66857        0.86761
H         -4.57407       -0.96317        1.24069
H         -4.23369       -2.25149        0.03969
H         -3.46863       -2.31373        1.66705
N          2.81209        1.66005        2.24372
H          2.78239        1.12042        3.10303
H          3.46812        2.42098        2.38501
H          3.18396        1.05130        1.51027
H          0.92592        3.59745       -0.22836
H          1.62057        2.13404       -0.98071
H         -0.31015        3.06686       -2.33239
H         -0.62253        1.43500       -1.74633
H         -2.00014        3.82301       -0.95639
H         -2.44285        2.23637       -0.80694
H          1.20231        1.89926        1.42826
H         -0.48580        2.05032        1.05809
C          0.72794        2.56237       -0.52023
C         -0.49658        2.47492       -1.42897
N          0.44365        1.78863        0.71087
N         -1.68368        2.89980       -0.69097
H          0.41262        0.78215        0.46413
