36
1sa1msa2dma_227.log	Energy: -1025799.0398657
S         -1.64074       -1.42277       -0.48130
O         -0.54188       -2.31195       -0.90331
O         -2.97738       -1.98103       -0.48393
O         -1.36829       -1.05683        1.07902
O         -1.54231       -0.09394       -1.17807
H         -0.41500       -0.81732        1.18193
H         -2.29580        0.94446       -0.43667
S          2.29519       -1.01337        0.47741
O          2.75775       -2.15548        1.24062
O          1.20413       -0.21000        1.07135
O          1.87564       -1.41921       -0.98818
H          0.93142       -1.79369       -1.00634
C          3.64580        0.06780        0.10573
H          4.07379        0.36627        1.06379
H          4.37267       -0.50133       -0.47412
H          3.26167        0.93383       -0.44636
N          2.02262        2.72363       -0.97848
C          1.79825        3.21867        0.36892
C          0.82080        2.17047       -1.58369
H          2.40255        3.46004       -1.56247
H          1.51507        2.37804        1.01235
H          2.71875        3.65466        0.76705
H          1.00317        3.98578        0.42910
H          0.48707        1.29747       -1.01654
H         -0.01532        2.89580       -1.62652
H          1.03161        1.83510       -2.60145
N         -2.84372        1.66088        0.18238
C         -1.91314        2.21062        1.19548
C         -4.01558        0.95675        0.76250
H         -3.16009        2.40448       -0.43822
H         -1.54693        1.37820        1.79553
H         -1.07307        2.68183        0.68502
H         -2.43352        2.93499        1.82499
H         -3.64345        0.14713        1.39036
H         -4.61447        1.65630        1.34861
H         -4.60181        0.52616       -0.04868
