38
1sa1msa1dma1eda_128.log	Energy: -1060548.1242699
S         -0.93650        0.29886        1.15437
O          0.49426        0.15431        1.58944
O         -1.82694        0.80390        2.19085
O         -0.97693        1.11061       -0.10222
O         -1.36568       -1.16896        0.77633
H          0.51705        1.64128       -0.39417
H         -2.41055       -1.22921        0.72929
S          2.91927       -1.09948       -0.26493
O          3.47420        0.21467        0.11160
O          2.22501       -1.13555       -1.54577
O          2.04189       -1.65776        0.89425
H          1.32704       -0.95144        1.20262
C          4.23297       -2.29111       -0.25829
H          4.72198       -2.25978        0.71456
H          3.79919       -3.27206       -0.45083
H          4.92380       -2.00939       -1.05316
N          1.46485        2.10325       -0.50183
C          1.46837        3.31288        0.34466
C          1.73303        2.33655       -1.93437
H          2.16832        1.43399       -0.14160
H          0.69318        3.99589       -0.00530
H          1.25304        3.00932        1.36934
H          2.44649        3.79404        0.29148
H          0.94823        2.97341       -2.34540
H          2.70578        2.81758       -2.05052
H          1.73649        1.36920       -2.43767
H         -5.44316        0.21817        0.02771
H         -3.85742        0.89202        0.46159
H         -4.14860        0.94549       -1.97775
H         -2.84261       -0.15250       -1.52958
H         -5.51739       -0.94712       -2.42506
H         -4.06045       -1.45589       -2.96804
H         -4.32924       -1.22688        1.58726
H         -4.33402       -1.97561        0.11079
C         -4.35716        0.05522       -0.03375
C         -3.92724       -0.01608       -1.49339
N         -3.96108       -1.19023        0.64195
N         -4.56773       -1.16373       -2.14179
