41
1sa1msa1tma1eda_29.log	Energy: -1085218.7201818
S         -2.74211        1.12782        0.21467
O         -3.28042        0.16406        1.17704
O         -2.12790        2.32926        0.77541
O         -1.88190        0.47288       -0.82172
O         -3.99714        1.62740       -0.70272
H         -4.55419        2.19653       -0.15470
S          2.64546       -1.15264        0.05550
O          3.18224       -0.15115       -0.89280
O          2.36818       -2.47740       -0.52106
O          1.44980       -0.59869        0.78836
C          3.89653       -1.38794        1.30982
H          4.78979       -1.77925        0.82212
H          4.10373       -0.42540        1.77826
H          3.51947       -2.09990        2.04435
H          0.57746        3.70069       -0.42217
H          0.40543        2.82003        1.11024
H          2.67707        3.96202        0.80391
H          2.79339        2.22485        1.09143
H          3.87495        3.51554       -1.05702
H          3.53461        1.89760       -1.01907
H         -0.31339        1.48650       -0.81651
H          1.25705        1.61356       -1.42650
C          0.95721        2.86627        0.17068
C          2.46771        2.98194        0.36573
N          0.68114        1.61833       -0.57904
N          3.14338        2.83199       -0.92050
H          0.96164        0.77313       -0.01717
N         -1.64941       -2.20151       -0.24197
C         -3.07042       -2.59208       -0.42296
H         -3.68057       -1.97525        0.23699
H         -3.35220       -2.40989       -1.46066
H         -3.17921       -3.65226       -0.18463
C         -0.75488       -2.90752       -1.19613
H         -1.04243       -2.63195       -2.21177
H          0.28499       -2.63275       -1.00261
H         -0.87872       -3.98361       -1.05484
C         -1.20371       -2.37344        1.16816
H         -0.18980       -1.97709        1.25361
H         -1.88380       -1.80668        1.80452
H         -1.23105       -3.43775        1.41264
H         -1.61110       -1.17747       -0.45454
