33
1sa1msa1ma1dma_110.log	Energy: -1001152.2406564
S          1.04250       -1.59102        0.26036
O          1.97696       -1.08712        1.26435
O         -0.18321       -2.23070        0.79975
O          0.71926       -0.62071       -0.80582
O          1.87840       -2.79060       -0.45050
H          1.28392       -3.25811       -1.05282
S         -2.63176        0.14058       -0.29229
O         -2.57317        0.52929       -1.68998
O         -1.77203        0.86441        0.64946
O         -2.42679       -1.40942       -0.11985
H         -1.51016       -1.67621        0.24157
C         -4.31705        0.27268        0.26212
H         -4.61106        1.31671        0.14989
H         -4.93343       -0.36711       -0.36930
H         -4.36709       -0.03914        1.30477
N          3.53422        1.12726       -0.06479
H          4.35501        1.58153        0.32219
C          3.74523        0.78590       -1.47872
H          4.60317        0.12329       -1.64194
H          2.84783        0.28527       -1.84998
H          3.89787        1.70208       -2.05603
H          3.37093        0.27486        0.47505
N          0.90148        1.91892        0.34768
C          0.36510        3.05394       -0.42421
C          0.74976        2.04197        1.81263
H          0.44039        1.05124        0.02670
H          0.88679        3.96822       -0.13449
H          0.51798        2.85801       -1.48577
H         -0.70290        3.14354       -0.22421
H          1.31176        2.91391        2.15410
H         -0.30731        2.14470        2.05401
H          1.14688        1.13331        2.26713
H          1.93390        1.75940        0.13961
