28
1sa1msa1eda_94.log	Energy: -975730.4135382
S         -1.74950        1.65303       -0.05206
O         -2.55474        2.77114        0.33995
O         -2.68945        0.47047       -0.46206
O         -0.74143        1.84165       -1.10148
O         -1.00208        1.13312        1.25300
H          0.86843        1.17544       -1.16995
H         -0.54603        0.25156        1.12258
S         -0.48538       -2.17227        0.10472
O         -1.32259       -2.86181        1.07087
O          0.38592       -1.09449        0.74135
O         -1.18660       -1.57319       -1.06814
H         -2.16512       -0.33762       -0.77081
C          0.67292       -3.34432       -0.57703
H          1.25708       -3.75734        0.24550
H          0.09459       -4.12906       -1.06531
H          1.31261       -2.83977       -1.30175
H          2.49725        2.57147       -0.17836
H          1.58838        1.73041        1.09075
H          4.07666        1.60687        1.50342
H          3.36212        0.00925        1.26692
H          4.96931        1.46570       -0.69808
H          5.10999       -0.08384       -0.20161
H          2.41801        0.46483       -1.42203
H          1.30895       -0.13961       -0.27561
C          2.31066        1.59850        0.28340
C          3.60353        0.95033        0.76286
N          1.69635        0.71948       -0.74225
N          4.44235        0.65160       -0.39939
