30
1sa1msa2ma_102.log	Energy: -976489.8106318
S          0.74477       -1.29757       -0.31967
O         -0.44530       -2.15886       -0.14896
O          0.64842       -0.39666       -1.47407
O          0.79586       -0.33788        0.99565
O          2.02816       -2.01755       -0.21507
H         -0.09995        0.06026        1.10799
H          3.26048       -0.88080       -0.13812
S         -2.81168        0.40543        0.08686
O         -2.92927        1.41642       -0.94373
O         -1.75095        0.56805        1.09434
O         -2.71971       -1.03341       -0.54099
H         -1.80785       -1.47459       -0.41352
C         -4.36063        0.28019        0.94883
H         -4.55016        1.24956        1.41058
H         -5.13396        0.04431        0.21799
H         -4.27756       -0.50301        1.70144
N          2.33073        1.95432       -1.04807
H          2.65250        2.50128       -1.84088
C          1.73489        2.83190       -0.02968
H          0.88337        3.40814       -0.40679
H          1.38255        2.21344        0.79834
H          2.49001        3.52602        0.34976
H          1.61678        1.30706       -1.39833
N          3.86163       -0.03563        0.04134
H          4.76644       -0.17028       -0.40349
C          3.98586        0.17948        1.50071
H          4.52420        1.10890        1.69010
H          2.97686        0.23698        1.90865
H          4.51155       -0.65947        1.95690
H          3.35049        0.80525       -0.42505
