38
1sa1msa1dma1eda_187.log	Energy: -1060548.1061035
S          1.17761        0.73779       -0.43330
O          2.27685        1.23140       -1.25332
O         -0.12072        0.58228       -1.15210
O          1.53339       -0.74629        0.02202
O          0.97040        1.53207        0.81346
H          2.55729       -0.81165        0.23504
H         -0.57849        1.63393        1.21759
S         -2.10236       -2.00062        0.13873
O         -3.32515       -2.75410       -0.04166
O         -2.06451       -0.94371        1.15593
O         -1.70552       -1.39739       -1.26348
H         -1.00866       -0.65921       -1.18455
C         -0.75665       -3.10957        0.48663
H         -0.94873       -3.55896        1.46159
H         -0.73916       -3.87032       -0.29361
H          0.16290       -2.52055        0.49183
N          4.08937       -0.83664        0.49111
C          4.43962        0.40045        1.20002
C          4.74977       -0.94319       -0.81508
H          4.34499       -1.63494        1.06529
H          4.10013        1.24932        0.60205
H          3.91848        0.42922        2.15928
H          5.52137        0.48896        1.36900
H          4.36998       -0.14483       -1.45691
H          5.84200       -0.85766       -0.73420
H          4.49769       -1.90270       -1.27222
H         -3.09869        3.23533        1.34377
H         -1.42611        3.84288        1.21064
H         -2.62852        3.86992       -1.00943
H         -1.20696        2.81879       -1.02824
H         -3.94609        1.97555       -1.24803
H         -2.55791        1.17816       -1.64923
H         -1.74239        1.65898        2.43659
H         -2.10891        0.97202        0.97599
C         -2.11394        3.05077        0.90638
C         -2.21240        2.93477       -0.61639
N         -1.61192        1.75926        1.43300
N         -3.00383        1.76019       -0.95201
