36
1sa1msa2dma_124.log	Energy: -1025812.2432359
S          0.17259       -0.67924       -0.86253
O         -1.08696       -1.04055       -1.54529
O          1.36112       -0.65632       -1.71153
O          0.01019        0.87462       -0.41958
O          0.37368       -1.43761        0.39929
H         -0.86526        0.99373        0.02254
H          2.02222       -1.30560        0.75139
S         -3.67283        0.35430        0.24965
O         -4.49331        1.17017       -0.62266
O         -2.41928        0.93654        0.75600
O         -3.36758       -1.05079       -0.39096
H         -2.45644       -1.07258       -0.84927
C         -4.63841       -0.15719        1.64988
H         -4.93377        0.74946        2.17860
H         -5.51505       -0.68865        1.27998
H         -4.02315       -0.79783        2.28034
N          3.03218       -1.03462        0.84426
C          3.83959       -1.84724       -0.08679
C          3.44827       -1.11679        2.25388
H          3.04958       -0.00223        0.52142
H          3.80037       -2.89676        0.21166
H          3.41027       -1.72992       -1.08210
H          4.87393       -1.49667       -0.07051
H          3.37938       -2.14900        2.60255
H          4.47715       -0.76453        2.35407
H          2.78763       -0.48921        2.85335
N          2.93575        1.58107       -0.01463
C          3.61576        1.70685       -1.30492
C          3.32942        2.61369        0.94011
H          1.92841        1.62844       -0.17436
H          4.68830        1.52669       -1.17170
H          3.20629        0.96259       -1.99069
H          3.48934        2.70469       -1.74832
H          4.39132        2.50129        1.18368
H          3.17664        3.63007        0.54969
H          2.75058        2.50568        1.86119
