30
1sa1msa1a1dma_11.log	Energy: -976509.1140719
S          1.90443       -1.07123       -0.29078
O          0.99681       -0.48783       -1.49579
O          2.21177       -2.46514       -0.56300
O          3.02079       -0.10956       -0.26601
O          1.04621       -0.89484        0.93622
H          2.02287        1.32522        0.02365
H         -0.03608       -1.94994        1.19382
S         -2.20815        0.17080       -0.12392
O         -1.37976        1.39901       -0.06684
O         -2.59379       -0.35593        1.21228
O         -1.60051       -0.90019       -0.97091
H          0.04329       -0.72695       -1.37169
C         -3.72302        0.64221       -0.93479
H         -3.47349        1.02212       -1.92553
H         -4.35843       -0.24040       -1.00773
H         -4.20247        1.41432       -0.33286
N         -0.93775       -2.53272        1.29756
H         -1.69460       -1.83400        1.47295
H         -0.86245       -3.23442        2.02706
H         -1.12712       -2.96205        0.39317
N          1.27344        2.00731        0.27481
C          1.34842        3.18614       -0.60966
C          1.36881        2.30009        1.72003
H          0.35902        1.53623        0.10708
H          2.30600        3.68852       -0.46451
H          1.25979        2.84446       -1.64070
H          0.52629        3.86264       -0.37278
H          2.31958        2.79375        1.92666
H          0.53531        2.94130        2.00977
H          1.31475        1.34896        2.24908
