40
1sa1msa2eda_241.log	Energy: -1095276.7700945
S         -0.18233       -0.54008       -0.78316
O         -1.40356       -1.09981       -1.40154
O          0.99437       -0.54081       -1.64722
O         -0.48221        1.02594       -0.53254
O          0.07426       -1.12722        0.55923
H         -1.37368        1.11322       -0.11575
H          1.58409       -0.97833        1.15776
S         -4.12057        0.24824        0.21164
O         -5.02271        0.83236       -0.76028
O         -2.93957        1.02977        0.61124
O         -3.66145       -1.19463       -0.21923
H         -2.75423       -1.18150       -0.68761
C         -5.03190       -0.15856        1.68119
H         -5.44233        0.77358        2.07043
H         -5.83204       -0.84393        1.40232
H         -4.35002       -0.61648        2.39659
H          4.31982       -2.07112        1.64658
H          2.83517       -3.04053        1.84238
H          3.86509       -3.38016       -0.38132
H          2.23655       -2.71368       -0.50125
H          4.47215       -1.62644       -1.63711
H          3.01891       -0.88941       -1.44312
H          2.37656       -0.89419        2.61813
H          3.07323       -0.08567        1.34022
C          3.29321       -2.21056        1.29725
C          3.26608       -2.48091       -0.20409
N          2.53754       -0.97059        1.61551
N          3.78639       -1.34046       -0.95057
H          4.67846        2.92725       -0.01590
H          4.70055        1.23631       -0.58107
H          2.96032        2.61656       -1.74196
H          2.29458        1.22770       -0.89844
H          1.96360        4.00094       -0.14776
H          0.92383        2.73022       -0.06564
H          4.69736        1.52721        1.88274
H          3.17167        2.13024        1.72757
C          4.11399        1.98316       -0.03883
C          2.77676        2.19546       -0.74420
N          3.85261        1.48509        1.32105
N          1.88701        3.01616        0.07850
