29
1sa1msa1tma_18.log	Energy: -965657.9779835
S         -1.51537       -1.41384        0.06626
O         -1.05102       -0.47486       -0.98655
O         -0.39787       -2.26843        0.54016
O         -2.32423       -0.77844        1.09692
O         -2.54372       -2.43675       -0.66000
H         -2.03101       -3.02627       -1.22944
S          2.31636       -0.06657       -0.09069
O          1.41469        0.58330        0.86449
O          2.47432        0.56300       -1.39135
O          1.93588       -1.58284       -0.24197
H          0.99084       -1.80792        0.07735
C          3.92231       -0.23044        0.65656
H          4.33406        0.77273        0.77157
H          3.80444       -0.71834        1.62357
H          4.54669       -0.82636       -0.00905
N         -1.16677        2.03370       -0.02249
C         -1.11522        2.20260        1.45301
H         -1.77409        1.45770        1.89920
H         -0.09276        2.02718        1.78142
H         -1.44011        3.21649        1.69893
C         -0.19578        2.90659       -0.72507
H          0.79931        2.69105       -0.33944
H         -0.22414        2.67557       -1.79004
H         -0.46438        3.95151       -0.55336
C         -2.54900        2.19888       -0.53750
H         -2.54972        1.99521       -1.60807
H         -3.18756        1.47468       -0.03093
H         -2.88496        3.21943       -0.34088
H         -0.91319        1.04254       -0.25819
