36
1sa1msa2dma_116.log	Energy: -1025813.4599203
S          0.05560        0.16656       -1.19123
O         -1.15148        0.41874       -2.00036
O          1.32683        0.48431       -1.83767
O          0.00557        1.28576        0.01732
O          0.02953       -1.13974       -0.50389
H         -0.84531        1.17137        0.50953
H          2.84422        0.16853        0.54054
S         -3.47236       -0.02307        0.56234
O         -4.79549        0.15638        1.11456
O         -2.36029        0.73429        1.15887
O         -3.55127        0.30008       -0.98108
H         -2.63483        0.35836       -1.39626
C         -3.02785       -1.74476        0.60034
H         -2.98782       -2.03887        1.65000
H         -3.80212       -2.30118        0.07228
H         -2.04867       -1.85609        0.12770
N          2.89069       -1.41835        0.24752
C          3.26072       -2.25550        1.38605
C          3.68439       -1.69415       -0.95167
H          1.90205       -1.56346        0.01950
H          4.29261       -2.04018        1.68340
H          2.60269       -2.03747        2.23155
H          3.18896       -3.32856        1.16008
H          4.73080       -1.42391       -0.77198
H          3.64889       -2.75481       -1.23627
H          3.29156       -1.09404       -1.77477
N          2.72567        1.24455        0.73735
C          3.55365        2.01417       -0.21316
C          3.01457        1.51339        2.15714
H          1.72537        1.42621        0.54464
H          4.60276        1.74702       -0.07087
H          3.22585        1.75954       -1.22075
H          3.41978        3.08358       -0.03813
H          4.05510        1.25880        2.36795
H          2.84477        2.56834        2.38121
H          2.35698        0.90001        2.77449
