38
1sa1msa1dma1eda_96.log	Energy: -1060560.8730221
S         -0.22241       -2.12241       -0.97861
O         -0.06054       -1.16267       -2.26077
O          0.05147       -3.45538       -1.46224
O          0.76225       -1.60133        0.02946
O         -1.60390       -1.88843       -0.46362
H          1.74495       -0.37000       -0.44008
H         -1.55400       -1.32055        1.06909
S         -1.10889        2.08938       -0.53847
O         -1.20226        3.53834       -0.65414
O         -0.72127        1.61772        0.83201
O         -0.21351        1.45522       -1.57177
H         -0.28354       -0.22842       -2.02715
C         -2.71623        1.38211       -0.86851
H         -3.41934        1.78180       -0.13598
H         -3.01147        1.68375       -1.87395
H         -2.63810        0.29289       -0.80813
N         -1.50359       -0.70962        1.92733
C         -0.53402       -1.25981        2.89384
C         -2.85682       -0.49724        2.47194
H         -1.14702        0.19881        1.53607
H         -0.91542       -2.20189        3.29202
H          0.39888       -1.44126        2.36062
H         -0.38933       -0.54547        3.70686
H         -3.25280       -1.44223        2.84758
H         -2.81535        0.23753        3.27774
H         -3.50121       -0.12690        1.67449
H          2.80158        2.25639        0.45921
H          1.63409        1.21722        1.28408
H          3.94024        0.91472        2.25135
H          3.37218       -0.57453        1.48575
H          5.36084        1.25883        0.37513
H          5.41970       -0.37164        0.50785
H          1.42680        1.10251       -1.11976
H          3.01958        0.46382       -1.19043
C          2.53041        1.21635        0.66114
C          3.69097        0.45390        1.28642
N          2.17587        0.57447       -0.62428
N          4.80282        0.41280        0.33704
