36
1sa1msa1ma1tma_57.log	Energy: -1025811.5848593
S          2.18505       -1.25292       -0.05657
O          0.85049       -1.66260        0.49246
O          2.24281       -1.35401       -1.51333
O          2.65645        0.00497        0.52497
O          3.21824       -2.34912        0.54953
H          3.01036       -3.20679        0.15501
S         -2.44316       -0.79997       -0.00941
O         -2.62907        0.49823       -0.65759
O         -2.22414       -0.79775        1.43428
O         -1.30980       -1.59535       -0.74097
H         -0.39431       -1.61707       -0.23494
C         -3.85004       -1.81582       -0.38840
H         -3.93743       -1.89352       -1.47180
H         -3.69704       -2.79451        0.06530
H         -4.72491       -1.32266        0.03614
N          0.15014        1.09779        1.68248
H         -0.53928        0.35234        1.77795
C         -0.06566        2.12110        2.70761
H          0.00766        1.72941        3.72867
H          0.67761        2.91733        2.59794
H         -1.05926        2.55970        2.58092
H          1.06759        0.66241        1.77504
N          0.35146        2.21394       -0.76712
C         -0.74436        3.20788       -0.77441
H         -1.69274        2.66908       -0.77502
H         -0.66995        3.82261        0.12458
H         -0.66211        3.84079       -1.66212
C          1.68676        2.84501       -0.65959
H          1.70558        3.48234        0.22654
H          2.43100        2.05408       -0.55327
H          1.87995        3.44649       -1.55172
C          0.27298        1.31625       -1.94622
H          1.06004        0.56332       -1.88784
H         -0.70366        0.83412       -1.95068
H          0.40135        1.91552       -2.85243
H          0.22015        1.64771        0.17113
