35
1sa1msa1ma1eda_208.log	Energy: -1035885.4781436
S          0.50804        1.51052       -0.42628
O          0.15945        1.11401        0.95964
O          0.60042        0.32069       -1.32336
O         -0.39270        2.56419       -0.93450
O          1.95819        2.12100       -0.40782
H          2.64038        1.35384       -0.55615
S         -1.87220       -1.92507       -0.22893
O         -2.57516       -3.16928       -0.44892
O         -2.68165       -0.75651        0.16158
O         -1.07428       -1.59423       -1.54427
H         -0.47030       -0.78116       -1.45051
C         -0.60496       -2.13616        0.99905
H         -1.10802       -2.39677        1.93120
H          0.04644       -2.94780        0.67629
H         -0.04635       -1.20355        1.10742
N         -2.46467        1.90999        0.70409
H         -1.87127        2.32908       -0.04912
H         -2.56740        0.89990        0.46632
C         -3.76274        2.58310        0.89906
H         -4.30593        2.09767        1.70952
H         -3.59620        3.63361        1.13650
H         -4.33836        2.50296       -0.02234
H         -1.85260        1.92806        1.52287
H          4.52511       -0.18127        1.40585
H          4.17327       -1.89545        1.63044
H          4.31008       -1.81087       -0.66981
H          2.57037       -1.55564       -0.44598
H          4.56894        0.50912       -1.02308
H          3.29034        0.04800       -1.93496
H          2.65276       -0.61288        2.92706
H          2.03295        0.13362        1.61387
C          3.75976       -0.96023        1.23819
C          3.55750       -1.12104       -0.26742
N          2.50014       -0.71326        1.92972
N          3.61036        0.17318       -0.97729
