40
1sa1msa2eda_47.log	Energy: -1095297.6389385
S          0.05962       -1.96122        0.12673
O         -0.52064       -0.97950        1.27609
O          1.13432       -2.75049        0.71008
O         -1.14388       -2.70779       -0.30051
O          0.50667       -1.03694       -0.96031
H         -1.98035       -1.41852       -1.07830
H          1.85848       -0.12955       -0.90028
S         -0.14291        2.38672       -0.01106
O         -1.33047        1.86248       -0.72553
O          0.97705        2.76694       -0.90898
O          0.32225        1.48533        1.08646
H         -0.14460       -0.05706        1.19412
C         -0.67851        3.88565        0.78962
H         -1.01879        4.57774        0.01925
H         -1.49268        3.62917        1.46765
H          0.16776        4.30135        1.33641
H         -4.32223        0.40640       -1.18555
H         -4.37492       -1.26031       -1.83000
H         -5.22871       -1.17328        0.47106
H         -3.77731       -2.17963        0.36459
H         -4.00057       -0.37251        2.20916
H         -2.56029       -0.50759        1.45247
H         -2.26737       -0.39917       -2.37298
H         -1.99800        0.27875       -0.90975
C         -3.91493       -0.60195       -1.08833
C         -4.14541       -1.14390        0.31823
N         -2.45765       -0.53421       -1.38213
N         -3.54089       -0.26905        1.31297
H          4.00601        1.21459        0.65400
H          2.51972        0.47474        1.28262
H          4.49556       -1.07860        1.52118
H          3.24231       -1.74934        0.47725
H          5.82206       -0.67477       -0.38536
H          5.03238       -2.01551       -0.88984
H          2.21109        1.49646       -0.91901
H          3.34895        0.36174       -1.52266
C          3.29631        0.39257        0.52131
C          3.99760       -0.96044        0.55064
N          2.64999        0.56015       -0.80237
N          4.90587       -1.05474       -0.59617
