38
1sa1msa1dma1eda_105.log	Energy: -1060559.5681036
S          0.11728        1.93223       -0.34536
O          0.11460        0.97038       -1.64715
O          1.40326        2.65897       -0.36553
O         -1.09244        2.74083       -0.54752
O          0.02575        1.02147        0.82153
H         -2.24089        1.28757       -0.75757
H          2.30232       -0.25035        0.03481
S          0.24345       -2.27143       -0.34677
O          0.58291       -3.64481       -0.69076
O         -1.11902       -1.83450       -0.76201
O          1.27546       -1.26943       -0.83099
H          0.56315        0.10630       -1.43266
C          0.26615       -2.13120        1.43524
H          1.25280       -2.43315        1.79106
H          0.04369       -1.09553        1.69493
H         -0.49026       -2.81074        1.82977
N          2.96055        0.48774        0.38489
C          4.25594        0.33308       -0.30769
C          3.02974        0.41643        1.85985
H          2.51440        1.39561        0.11445
H          4.67341       -0.64812       -0.07799
H          4.08632        0.41473       -1.38107
H          4.93955        1.11746        0.02042
H          3.41056       -0.56283        2.15525
H          3.69518        1.19893        2.22745
H          2.02226        0.57089        2.24603
H         -2.80496       -1.17881        1.18971
H         -4.38830       -0.60684        1.70147
H         -4.29191       -0.87776       -0.73385
H         -4.55520        0.83448       -0.32098
H         -1.90223       -0.36855       -0.94151
H         -2.83420        0.45306       -2.04645
H         -1.86350        0.92764        1.63893
H         -3.34203        1.62178        1.93201
C         -3.46627       -0.30628        1.19066
C         -3.84717        0.00280       -0.26325
N         -2.82165        0.75280        1.93343
N         -2.64121        0.37365       -1.04966
