28
1sa1msa1eda_30.log	Energy: -975732.9288346
S         -0.90701        1.78903        0.02755
O         -2.36557        1.72601       -0.00593
O         -0.24952        1.55271        1.30576
O         -0.32584        0.92530       -1.07109
O         -0.47122        3.29896       -0.36547
H         -1.01306        3.58749       -1.11260
S          2.61600       -0.75603       -0.04688
O          3.91293       -1.27639       -0.41389
O          1.52191       -1.71366        0.18824
O          2.17944        0.25731       -1.17810
H          1.21842        0.55763       -1.09605
C          2.74809        0.26358        1.40122
H          3.02549       -0.39111        2.22823
H          3.52795        1.00203        1.21512
H          1.78107        0.74179        1.57665
H         -1.60798       -2.57380        1.26144
H         -1.35842       -0.81632        1.36969
H         -3.81026       -1.42888        1.47856
H         -3.42090       -0.39365        0.10380
H         -4.01684       -3.25998       -0.00775
H         -4.55495       -2.05390       -0.97082
H         -0.12032       -1.96440       -0.43657
H         -1.65426       -2.24277       -1.17262
C         -1.79594       -1.61604        0.76921
C         -3.28339       -1.39666        0.51750
N         -1.09974       -1.65010       -0.54526
N         -3.75094       -2.38893       -0.45437
H         -1.01459       -0.68613       -0.93417
