27
1sa1msa1a1ma_177.log	Energy: -951819.4105154
S          1.69987       -0.62712        0.44901
O          0.62952       -0.29838        1.38958
O          2.82387       -1.41886        0.88897
O          1.07662       -1.37832       -0.78822
O          2.19637        0.73916       -0.12618
H          0.17082       -1.01236       -1.00618
H          3.15149        0.61874       -0.54271
S         -2.48309       -0.57964       -0.30074
O         -3.44224       -1.57382       -0.71981
O         -1.29964       -0.32950       -1.14696
O         -1.96861       -0.98430        1.14832
H         -1.03161       -0.69674        1.29225
C         -3.28079        0.97690       -0.03040
H         -3.65102        1.31732       -0.99859
H         -4.10786        0.80357        0.65862
H         -2.53248        1.66499        0.38809
N          4.57808        0.27863       -1.04672
H          5.27262        1.00279       -0.89313
H          4.60940        0.01154       -2.02589
H          4.83571       -0.53447       -0.49113
N         -0.61519        2.56174        0.87918
H         -0.53430        3.32935        1.53703
C         -0.23116        2.98637       -0.46686
H          0.79443        3.37167       -0.54699
H         -0.32452        2.13409       -1.14521
H         -0.91990        3.76419       -0.81179
H          0.00303        1.82328        1.20394
