28
1sa1msa1eda_131.log	Energy: -975726.0766508
S          1.67341       -1.54789        0.17951
O          1.45842       -1.04284       -1.30568
O          0.35557       -1.43344        0.84551
O          2.29581       -2.83879        0.13723
O          2.64469       -0.51852        0.81483
H          2.30618        0.44984        0.68883
S          0.44557        2.14798       -0.15433
O          0.30815        3.48595       -0.70134
O          1.79814        1.82044        0.38906
O          0.00641        1.05202       -1.10666
H          0.98470       -0.13776       -1.29940
C         -0.67084        1.99784        1.23246
H         -0.38933        2.75345        1.96639
H         -1.68469        2.16849        0.86907
H         -0.56353        0.99479        1.65064
H         -3.60023       -1.61270       -1.46621
H         -2.72235       -2.82483       -0.50700
H         -4.41843       -1.70814        0.90671
H         -2.79123       -1.32122        1.47330
H         -4.53766        0.48722       -0.02894
H         -3.72296        0.76005        1.36187
H         -1.24770       -1.34891       -1.83282
H         -1.72763       -0.04864       -0.93621
C         -2.92050       -1.75751       -0.62237
C         -3.50049       -1.16070        0.65478
N         -1.64238       -1.07696       -0.93275
N         -3.68228        0.27511        0.47360
H         -0.90281       -1.27637       -0.20795
