38
1sa1msa1dma1eda_37.log	Energy: -1060563.3037992
S          2.77057       -0.86786       -0.18494
O          2.17034       -2.04554       -0.84957
O          3.41813        0.08174       -1.08643
O          1.83115       -0.25043        0.78128
O          3.92958       -1.45265        0.80027
H          4.63500       -1.81269        0.24583
S         -2.17931        1.15684       -0.29697
O         -1.40519        0.58852        0.84966
O         -2.58815        0.11355       -1.25955
O         -1.45531        2.30366       -0.90873
C         -3.68030        1.83367        0.39101
H         -3.41392        2.59734        1.12178
H         -4.25820        2.26723       -0.42546
H         -4.23392        1.02338        0.86643
N          1.06273        2.30690        0.21477
C          0.82593        2.91297        1.54127
C          2.11416        2.96985       -0.58480
H          1.32556        1.30639        0.36940
H          0.52806        3.95497        1.41260
H          0.02921        2.34820        2.02561
H          1.74259        2.85325        2.12986
H          1.82169        4.00393       -0.77479
H          3.05592        2.93432       -0.03626
H          2.23785        2.42577       -1.52005
H          0.15604        2.30616       -0.30478
H         -0.83868       -3.88865        0.19477
H         -0.49580       -2.85152        1.60600
H         -2.91378       -3.56277        1.46128
H         -2.71638       -1.80650        1.41982
H         -4.08575       -3.22406       -0.43856
H         -3.36382       -1.77873       -0.78602
H          0.47496       -2.02027       -0.49954
H         -1.10042       -1.82708       -1.08386
C         -1.04278       -2.92407        0.66372
C         -2.54554       -2.73152        0.85315
N         -0.52317       -1.86837       -0.23776
N         -3.20676       -2.72555       -0.44772
H         -0.60904       -0.93951        0.22010
