36
1sa1msa2dma_189.log	Energy: -1025802.2519737
S          0.90363       -1.57300        0.28383
O         -0.24546       -2.20442        0.95410
O          2.16810       -2.29401        0.29429
O          0.53458       -1.45113       -1.27650
O          1.06606       -0.15038        0.75354
H         -0.36841       -1.05622       -1.34893
H          2.34258        0.43947        0.19795
S         -2.92801       -0.25055       -0.17351
O         -4.06351       -1.08898       -0.49794
O         -1.83338       -0.17393       -1.15871
O         -2.31720       -0.63282        1.23515
H         -1.54706       -1.27927        1.15569
C         -3.46451        1.40235        0.17244
H         -3.97182        1.75577       -0.72622
H         -4.15902        1.36218        1.01171
H         -2.57741        2.00560        0.39355
N         -0.28907        2.43005        0.31559
C          0.52995        3.23025        1.20140
C          0.04438        2.62146       -1.08106
H         -0.16249        1.44740        0.54775
H          0.33246        4.29556        1.03931
H          0.29926        2.99285        2.24254
H          1.61998        3.07497        1.05166
H         -0.18277        3.64914       -1.38580
H          1.11996        2.44852       -1.30113
H         -0.54240        1.93465       -1.69501
N          3.31109        0.72818       -0.19333
C          3.42585        0.19299       -1.57351
C          4.33189        0.19490        0.74137
H          3.33966        1.74734       -0.21134
H          3.33393       -0.89216       -1.51784
H          2.60400        0.58884       -2.17005
H          4.38778        0.48084       -2.00093
H          4.16521       -0.88002        0.82642
H          5.33190        0.40510        0.35818
H          4.19168        0.66212        1.71615
