41
1sa1msa1tma1eda_216.log	Energy: -1085196.2813092
S          0.44035       -1.84212       -0.50777
O          1.02207       -0.80993       -1.40126
O         -0.36144       -2.85597       -1.18754
O          1.66142       -2.62807        0.14382
O         -0.31343       -1.20423        0.62010
H          2.33468       -1.97570        0.45266
H         -1.80436       -1.66531        0.36071
S          3.63208        0.64817        0.23980
O          4.76821        0.70034       -0.65766
O          3.34105       -0.62408        0.91555
O          2.31890        1.16910       -0.46240
H          1.78110        0.39205       -0.85412
C          3.81991        1.89934        1.48709
H          4.72924        1.65903        2.03881
H          3.91841        2.86390        0.98939
H          2.94851        1.87517        2.14025
H         -4.64632       -2.48124        0.88648
H         -3.32808       -2.33680        2.07860
H         -4.86245       -0.28512        2.02261
H         -3.16925        0.08068        1.69016
H         -5.34455        0.25398       -0.18531
H         -3.84611        1.00487       -0.18287
H         -2.58179       -2.98893       -0.27072
H         -3.10632       -1.45180       -0.69599
C         -3.75031       -1.91927        1.16279
C         -4.05771       -0.42178        1.29144
N         -2.75963       -2.04546        0.07303
N         -4.35380        0.12331       -0.02718
N         -2.45357        2.39558       -0.34528
C         -2.96804        3.37277       -1.29446
H         -3.24172        2.87149       -2.22746
H         -3.86127        3.85532       -0.88558
H         -2.22596        4.15632       -1.52983
C         -2.12935        3.02700        0.92597
H         -3.02578        3.48732        1.35319
H         -1.75637        2.27500        1.62742
H         -1.35473        3.80774        0.82004
C         -1.29332        1.69355       -0.88996
H         -0.93168        0.95259       -0.17314
H         -1.57316        1.17027       -1.80883
H         -0.46315        2.38127       -1.12501
