41
1sa1msa1tma1eda_139.log	Energy: -1085208.0142742
S         -0.39342       -1.24623       -0.91914
O         -0.72712       -0.04521       -1.74145
O          0.70932       -2.05579       -1.40941
O         -0.22654       -0.81120        0.51071
O         -1.67534       -2.17297       -0.96107
H         -2.51504       -1.60849       -0.83502
S          3.24448       -0.21146        0.60195
O          4.35870        0.19315        1.43673
O          2.64653        0.77792       -0.29994
O          2.11923       -0.76348        1.56775
H          1.21288       -0.82307        1.11255
C          3.70233       -1.63159       -0.36103
H          4.48277       -1.31018       -1.05175
H          4.07982       -2.38963        0.32521
H          2.81374       -1.97490       -0.89539
H         -5.34884       -0.59167        1.01069
H         -4.46801       -2.12529        0.91774
H         -3.67209       -0.89872        2.84192
H         -2.37450       -0.95967        1.63155
H         -4.08779        1.35887        2.15533
H         -2.47996        1.23367        2.36004
H         -4.58235       -0.93711       -1.23755
H         -3.63661        0.24301       -0.59626
C         -4.36242       -1.04091        0.81795
C         -3.36161       -0.54069        1.85017
N         -3.87690       -0.74332       -0.53430
N         -3.25054        0.92329        1.77720
N         -0.24223        2.29153       -0.60540
C         -1.63329        2.77471       -0.77303
H         -1.93874        2.59801       -1.80501
H         -2.27687        2.21415       -0.08915
H         -1.67461        3.84280       -0.54448
C          0.18148        2.34085        0.81556
H         -0.42857        1.63185        1.37283
H          1.22521        2.03820        0.87391
H          0.04696        3.35896        1.18984
C          0.71082        2.99599       -1.49755
H          1.69170        2.53707       -1.37600
H          0.37121        2.87744       -2.52704
H          0.74083        4.05452       -1.22769
H         -0.27246        1.28338       -0.93271
