30
1sa1msa1a1dma_98.log	Energy: -976489.6822058
S          0.48156        0.92654       -0.39501
O          0.03521       -0.22733       -1.20994
O          1.81314        1.42616       -0.75049
O         -0.50699        2.13535       -0.69532
O          0.36888        0.62175        1.06483
H         -1.43566        1.81510       -0.58467
H          1.92585        0.80001        1.73493
S         -3.20842       -0.42425        0.05090
O         -4.56120       -0.91550       -0.07350
O         -2.92616        0.97171       -0.30729
O         -2.27271       -1.37324       -0.80161
H         -1.38447       -0.93647       -0.98757
C         -2.63130       -0.67449        1.71528
H         -3.25394       -0.05576        2.36291
H         -2.75304       -1.73026        1.95720
H         -1.58571       -0.36065        1.76296
N          2.96982        0.89955        1.78996
H          3.18480        1.83694        1.45559
H          3.37928        0.15988        1.04114
H          3.31571        0.76956        2.73568
N          3.68001       -0.76884       -0.15580
C          2.92381       -2.01878       -0.02077
C          5.08945       -0.98134       -0.48349
H          3.23399       -0.19567       -0.87436
H          3.31047       -2.58593        0.83182
H          1.87004       -1.78827        0.15016
H          2.99862       -2.64385       -0.91913
H          5.57913       -1.51309        0.33819
H          5.21841       -1.57041       -1.40067
H          5.58432       -0.01627       -0.61713
