27
1sa1msa1a1ma_22.log	Energy: -951840.4704171
S         -2.22391       -0.28206        0.20925
O         -1.79863       -1.65989        0.54514
O         -1.77917        0.75431        1.15324
O         -1.94916        0.05496       -1.20161
O         -3.83483       -0.27068        0.40575
H         -4.19591       -1.07355        0.00707
S          2.39068       -0.33356        0.14979
O          3.66175        0.37891        0.14541
O          2.46889       -1.80759       -0.07313
O          1.37071        0.23674       -0.81192
C          1.65654       -0.13080        1.76883
H          2.32629       -0.59008        2.49653
H          1.55722        0.93601        1.97505
H          0.67698       -0.61123        1.78259
N          0.14792       -2.24865       -1.31397
H         -0.60808       -2.23299       -0.59524
H          0.01566       -2.99988       -1.98338
H          0.11288       -1.33119       -1.76852
H          1.09581       -2.28135       -0.84013
N         -0.26171        2.26948       -0.56898
H         -0.82965        1.95957        0.24464
H          0.48185        1.51357       -0.67515
C          0.31923        3.61745       -0.42931
H          0.89333        3.85711       -1.32412
H         -0.47122        4.35405       -0.28451
H          0.98729        3.62234        0.43173
H         -0.88532        2.16781       -1.37063
