39
1sa1msa1dma1tma_53.log	Energy: -1050473.5802332
S          1.20591        0.68207       -0.39475
O          1.29420        1.58555        0.76202
O          1.15788       -0.75557        0.02640
O          0.08808        1.02226       -1.30846
O          2.51023        0.83264       -1.26306
H          3.30742        0.36430       -0.77908
S         -2.14602       -1.85621        0.11708
O         -2.76497       -0.75359       -0.62093
O         -2.03037       -1.68130        1.56079
O         -0.77324       -2.25736       -0.51929
H         -0.00281       -1.59611       -0.30244
C         -3.05502       -3.34340       -0.23179
H         -4.06094       -3.19814        0.16317
H         -3.07953       -3.48911       -1.31127
H         -2.56068       -4.17584        0.26809
N          4.43099       -0.41828       -0.01470
C          4.27259       -1.83867       -0.34293
C          4.26610       -0.15016        1.41885
H          5.34798       -0.09963       -0.31397
H          3.24098       -2.12495       -0.12511
H          4.45246       -1.98748       -1.41001
H          4.95687       -2.47746        0.23258
H          3.24712       -0.41774        1.70794
H          4.97584       -0.72294        2.03169
H          4.39964        0.91711        1.60600
N         -1.78457        2.33110        0.07006
C         -1.09742        3.64633        0.08534
H         -0.11277        3.50441        0.53272
H         -0.98317        3.99403       -0.94180
H         -1.69615        4.35515        0.66236
C         -3.09392        2.38783       -0.62045
H         -2.93912        2.75878       -1.63430
H         -3.50499        1.37965       -0.65594
H         -3.75623        3.06196       -0.07165
C         -1.90108        1.76736        1.44120
H         -2.36529        0.78400        1.38064
H         -0.89598        1.67164        1.85331
H         -2.50890        2.44367        2.04765
H         -1.14685        1.69429       -0.48646
