35
1sa1msa1ma1eda_112.log	Energy: -1035888.9742624
S          2.02686        1.07057       -0.32653
O          1.57467        0.38127       -1.54038
O          1.53058        2.44107       -0.18102
O          1.83712        0.26429        0.91695
O          3.64799        1.14325       -0.40257
H          3.88986        1.62602       -1.20462
S         -0.07794       -2.51774        0.20972
O         -0.90927       -1.32274        0.40499
O         -0.57835       -3.79662        0.66626
O          1.32064       -2.27365        0.90174
H          1.57910       -1.29808        0.87062
C          0.33414       -2.61309       -1.51653
H         -0.59648       -2.77986       -2.06073
H          0.80420       -1.66851       -1.80068
H          1.01378       -3.45462       -1.65100
N         -0.75438        1.22397        1.62572
H          0.14835        0.72733        1.63213
H         -1.00918        1.34181        0.57769
C         -0.65958        2.54204        2.28033
H         -1.61648        3.05528        2.17820
H         -0.41477        2.42335        3.33625
H          0.12633        3.10514        1.77633
H         -1.47900        0.62979        2.02292
H         -3.34796       -0.11919       -1.72447
H         -4.62832        0.96524       -1.19391
H         -2.87771        2.19219       -2.35171
H         -3.03009        2.72366       -0.66612
H         -0.94822        0.81861       -1.53682
H         -0.69946        2.39837       -1.25717
H         -4.33123       -0.16936        0.70869
H         -2.76205       -0.51858        0.43426
C         -3.58884        0.67882       -1.00450
C         -2.71478        1.89234       -1.30644
N         -3.45640        0.22389        0.38235
N         -1.30583        1.61792       -1.01747
