32
1sa1msa1a1eda_200.log	Energy: -1011230.8106119
S          0.75559        1.99246        0.09595
O          1.52292        1.41331       -1.03182
O          0.46704        0.89521        1.09492
O          1.26540        3.20569        0.68245
O         -0.69350        2.37320       -0.51973
H         -0.98648        1.60624       -1.05259
S         -2.39277       -0.60235       -0.10706
O         -2.91383       -1.95399       -0.11901
O         -1.49611       -0.19878       -1.20583
O         -1.66440       -0.35778        1.26191
H         -0.79777        0.22933        1.17884
C         -3.73780        0.55807       -0.04600
H         -4.29320        0.46372       -0.97969
H         -4.36571        0.30062        0.80683
H         -3.31917        1.55952        0.06431
N          0.22766       -2.75412        0.90705
H          1.09001       -2.74934        1.45061
H         -0.09379       -3.70754        0.77871
H         -0.48740       -2.25913        1.43392
H          2.70660       -2.82795       -0.96496
H          3.17509       -1.56239       -2.12860
H          4.47434       -1.45102       -0.02511
H          3.58365        0.04152       -0.35810
H          3.51240       -1.01769        1.98104
H          2.11297       -0.45517        1.36910
H          0.82804       -1.58590       -2.07450
H          0.75514       -1.76592       -0.41496
C          2.71082       -1.75175       -1.15785
C          3.47384       -1.00979       -0.06269
N          1.29289       -1.30513       -1.21346
N          2.83324       -1.16843        1.24402
H          1.24240       -0.26090       -1.15450
