38
1sa1msa1dma1eda_119.log	Energy: -1060552.2081329
S         -1.00026       -0.05637       -0.53967
O         -0.15829       -1.38844       -0.65056
O         -1.24367        0.21681        0.89766
O         -0.25450        1.02626       -1.20993
O         -2.27202       -0.39896       -1.24123
H          1.17264        1.58920       -0.49762
H         -3.27628       -0.81410       -0.12686
S          3.49519       -1.00396       -0.01622
O          4.05951        0.38241       -0.07520
O          3.62441       -1.77424       -1.24903
O          2.09553       -0.94226        0.53126
H          0.75764       -1.26948       -0.24100
C          4.43953       -1.84510        1.24551
H          5.47908       -1.88207        0.91843
H          4.34705       -1.29307        2.18079
H          4.03506       -2.85228        1.34948
N          1.95592        2.05291        0.01531
C          1.57546        2.11931        1.44166
C          2.23728        3.35725       -0.60872
H          2.79819        1.42154       -0.07144
H          0.65321        2.69329        1.54283
H          1.41097        1.09814        1.78502
H          2.38453        2.58748        2.00562
H          1.35180        3.99191       -0.54146
H          3.07698        3.83101       -0.09716
H          2.49180        3.19526       -1.65613
H         -5.01253        0.60526        1.83360
H         -3.94948        1.28163        0.57383
H         -6.34765        1.21651       -0.20057
H         -5.29660        0.19530       -1.18705
H         -7.22302       -0.74303        0.80229
H         -6.93959       -1.30227       -0.70837
H         -3.05990       -0.76624        1.49625
H         -4.44162       -1.58955        0.90509
C         -4.61796        0.45664        0.82448
C         -5.74207        0.30157       -0.19317
N         -3.81511       -0.78742        0.80449
N         -6.49687       -0.91404        0.11539
