23
1sa1msa1ma_59.log	Energy: -916314.4932964
S          2.81037       -0.45811       -0.07301
O          4.04257       -0.97826       -0.59352
O          1.61952       -1.28645        0.00807
O          3.03447        0.03603        1.44091
O          2.48844        0.86837       -0.84237
H          3.91049        0.44232        1.51744
H          1.56430        1.19165       -0.61732
S         -1.15539        0.80881       -0.14452
O         -1.73350        0.56827       -1.44961
O          0.09649        1.58840       -0.08548
O         -0.90317       -0.56831        0.62254
H          0.01005       -0.89943        0.42725
C         -2.34216        1.53986        0.93973
H         -2.64866        2.47766        0.47492
H         -3.17597        0.82776        1.01486
H         -1.86338        1.71360        1.90281
N         -4.11806       -1.15486        0.71269
H         -3.24495       -1.67134        0.76328
C         -4.67994       -1.23441       -0.63805
H         -4.90161       -2.25625       -0.97624
H         -5.60583       -0.65373       -0.67724
H         -3.97486       -0.78554       -1.34194
H         -4.74874       -1.57095        1.38936
