27
1sa1msa1a1ma_19.log	Energy: -951843.1993115
S         -2.50004       -0.17630       -0.06139
O         -2.57717       -1.12976        1.06860
O         -2.40987        1.23452        0.38232
O         -1.50333       -0.53041       -1.07236
O         -3.91844       -0.30544       -0.84250
H         -4.62918       -0.14080       -0.20813
S          2.40682       -0.32390       -0.19687
O          2.17755        0.88944       -1.02862
O          2.16151       -1.60153       -0.88572
O          1.64975       -0.23506        1.09796
C          4.13746       -0.28101        0.23347
H          4.71199       -0.32578       -0.69207
H          4.33884        0.64784        0.76715
H          4.35572       -1.14401        0.86264
N         -0.10604       -2.28876        0.73031
H         -1.08333       -2.05077        1.00337
H          0.55201       -1.54577        1.07497
H          0.18487       -3.20604        1.05354
H         -0.03346       -2.23377       -0.29047
N         -0.00657        2.31541       -0.37590
H         -0.91307        1.82449       -0.20226
H          0.71723        1.64578       -0.74449
C          0.49027        2.89465        0.89392
H          1.40576        3.45303        0.69956
H         -0.27393        3.54252        1.32255
H          0.70890        2.06499        1.56593
H         -0.16894        3.02888       -1.08290
