42
1sa1msa2tma_47.log	Energy: -1075127.4545113
S         -1.76264       -1.73838       -0.60897
O         -1.88804       -2.68907        0.48431
O         -2.88057       -0.76874       -0.76029
O         -0.45723       -1.03805       -0.66477
O         -1.82921       -2.66701       -1.93919
H         -1.92406       -2.08744       -2.70703
S         -1.12829        2.20998        0.02233
O          0.17424        2.34471       -0.61434
O         -1.18330        1.45790        1.27763
O         -2.19990        1.66496       -0.98530
H         -2.44236        0.67428       -0.85213
C         -1.78906        3.83840        0.29595
H         -1.09596        4.36372        0.95366
H         -1.86028        4.34245       -0.66768
H         -2.76961        3.73851        0.76016
N          0.71703       -0.88712        1.78984
C         -0.31873       -1.09521        2.83527
H         -0.85740       -0.15862        2.96907
H         -1.00496       -1.86908        2.48947
H          0.17809       -1.39500        3.76093
C          1.46083       -2.13840        1.49614
H          0.74464       -2.89220        1.16848
H          2.17816       -1.92368        0.70344
H          1.97839       -2.46309        2.40166
C          1.63482        0.23120        2.12116
H          2.35421        0.31992        1.30289
H          1.04222        1.13986        2.21503
H          2.14011       -0.00143        3.06207
H          0.21993       -0.65883        0.90002
N          3.32360        0.07871       -0.73890
C          3.58541        1.51080       -0.70473
H          2.64181        2.05005       -0.58604
H          4.24041        1.75006        0.14049
H          4.07629        1.86776       -1.62926
C          4.55736       -0.67721       -0.86181
H          5.22426       -0.44490       -0.02519
H          4.34203       -1.75072       -0.84259
H          5.09626       -0.45647       -1.80284
C          2.39396       -0.24617       -1.81407
H          2.15117       -1.31253       -1.78895
H          1.46418        0.30987       -1.68009
H          2.81748       -0.00734       -2.80780
