32
1sa1msa1a1eda_21.log	Energy: -1011240.9286060
S          2.81478       -0.20565        0.16112
O          2.00401       -0.13191       -1.07386
O          2.62240        0.95565        1.05352
O          2.72379       -1.50634        0.83788
O          4.33275       -0.07338       -0.40604
H          4.93464       -0.05940        0.35048
S         -2.39771       -1.09551        0.02111
O         -3.03192        0.05572       -0.63233
O         -1.20526       -0.72032        0.84808
O         -2.04315       -2.21629       -0.90035
C         -3.58852       -1.77418        1.16406
H         -3.85925       -0.99491        1.87674
H         -4.46108       -2.08964        0.59138
H         -3.13456       -2.62352        1.67449
N          0.62766       -2.50442       -0.83648
H          1.05318       -1.62418       -1.19497
H          0.95468       -2.54712        0.13362
H         -0.42830       -2.45008       -0.87998
H          0.98501       -3.30287       -1.35274
H          0.69763        3.05060       -0.73075
H          0.10941        1.50884       -1.36745
H         -1.51710        3.39763       -1.82371
H         -2.22157        2.12130       -0.81960
H         -1.35748        4.76147        0.10703
H         -2.73659        3.94444        0.43669
H          0.96783        1.52391        0.98236
H         -0.45082        2.39811        1.35399
C         -0.09539        2.30205       -0.64844
C         -1.47558        2.92089       -0.83632
N         -0.01768        1.72189        0.71579
N         -1.74260        3.83846        0.27559
H         -0.54442        0.81498        0.77144
