32
1sa1msa1a1eda_53.log	Energy: -1011240.5675119
S         -2.88663        0.03814       -0.06934
O         -2.59743        1.23323       -0.88911
O         -2.97639       -1.20562       -0.86669
O         -2.01985       -0.08951        1.10874
O         -4.36271        0.27699        0.56203
H         -4.98257        0.42436       -0.16535
S          2.17493       -1.19019       -0.12802
O          2.61853       -0.17436       -1.09914
O          1.65571       -2.44526       -0.73645
O          1.18681       -0.63423        0.85373
C          3.60880       -1.66138        0.82366
H          4.33967       -2.08801        0.13614
H          4.01032       -0.76899        1.30442
H          3.30537       -2.39710        1.56834
N         -0.88109       -2.58717        0.26905
H         -0.75744       -1.81367        0.93800
H         -1.11901       -3.44518        0.75743
H         -1.66802       -2.28584       -0.34424
H          0.02781       -2.67958       -0.24524
H          0.09675        3.68441        0.10816
H         -0.01401        2.59312        1.51563
H          2.27947        3.69626        1.22260
H          2.32829        1.93072        1.25343
H          3.28377        3.51900       -0.79401
H          2.97857        1.89494       -0.91052
H         -0.90908        1.62503       -0.58632
H          0.66719        1.72664       -1.19952
C          0.47334        2.76105        0.55345
C          1.99866        2.79698        0.66680
N          0.10304        1.64421       -0.34634
N          2.58401        2.80115       -0.67072
H          0.35624        0.73953        0.10642
