33
1sa1msa1a1tma_63.log	Energy: -1001150.5832157
S          0.14819        1.40881       -0.19485
O         -0.07708        0.36509       -1.22864
O          1.35125        2.21578       -0.43885
O         -1.06082        2.43589       -0.29301
O          0.12206        0.81417        1.17029
H         -1.90488        1.92310       -0.27345
H          1.86256        0.86998        1.87971
S         -3.16138       -0.71625       -0.00053
O         -4.36705       -1.47851       -0.23005
O         -3.19065        0.73728       -0.20522
O         -2.01834       -1.33709       -0.90295
H         -1.27536       -0.67265       -1.05879
C         -2.57412       -1.01220        1.65230
H         -3.32800       -0.61656        2.33423
H         -2.46430       -2.08871        1.78325
H         -1.62291       -0.48771        1.77022
N          2.82270        1.05348        1.54058
H          2.67542        1.82973        0.87580
H          3.13296        0.17253        0.93856
H          3.46347        1.29545        2.28916
N          3.39720       -1.02810       -0.06664
C          3.47782       -0.42380       -1.40376
H          2.54296        0.09347       -1.62872
H          4.29582        0.30179       -1.42767
H          3.66030       -1.18729       -2.17409
C          4.64357       -1.71140        0.27874
H          5.47297       -0.99838        0.25942
H          4.56641       -2.13595        1.28379
H          4.86899       -2.52542       -0.42645
C          2.25026       -1.94137        0.01921
H          2.16575       -2.32997        1.03814
H          1.33530       -1.40166       -0.23319
H          2.36408       -2.78859       -0.67287
