35
1sa1msa1ma1eda_53.log	Energy: -1035900.8281986
S          0.68860        1.99480        0.10856
O          0.65714        0.84196        1.24608
O          0.15153        3.21841        0.67949
O          2.11109        2.00126       -0.28949
O         -0.14808        1.43691       -1.00537
H          2.11800        0.42826       -1.05699
H         -1.72179        1.52412       -0.95718
S         -1.56393       -1.67295       -0.00559
O         -0.26242       -1.93361       -0.66114
O         -2.65432       -1.31777       -0.95330
O         -1.47211       -0.67763        1.10545
H         -0.19205        0.31850        1.21192
C         -2.04596       -3.20902        0.75706
H         -1.27107       -3.48521        1.47227
H         -3.00168       -3.05622        1.25823
H         -2.13509       -3.96165       -0.02640
N         -2.77686        1.42508       -0.86037
H         -3.22710        1.90648       -1.63449
C         -3.20682        1.95222        0.45730
H         -4.29521        1.94790        0.52117
H         -2.78656        1.29610        1.21877
H         -2.81295        2.96041        0.58386
H         -2.93936        0.39512       -0.94036
H          3.06925       -2.38425       -1.14488
H          4.02544       -1.01862       -1.79112
H          4.70062       -1.54708        0.50632
H          4.01782        0.08158        0.40639
H          3.23749       -1.56315        2.24913
H          2.09131       -0.68092        1.49071
H          1.78146       -0.59766       -2.33011
H          1.19662       -0.98854       -0.85582
C          3.28143       -1.31772       -1.04836
C          3.77072       -0.98961        0.35777
N          2.02517       -0.57574       -1.34192
N          2.79332       -1.40591        1.35295
