28
1sa1msa1eda_23.log	Energy: -975731.5747695
S          0.83011        1.63920       -0.00639
O         -0.44231        1.99463        0.65690
O          1.87958        1.19467        0.91287
O          0.65143        0.74418       -1.17220
O          1.33689        3.01236       -0.70319
H          1.30968        3.71383       -0.03787
S         -2.66689       -0.68497        0.13199
O         -3.94789       -1.30884        0.37844
O         -1.46754       -1.52803        0.11102
O         -2.48849        0.45022        1.21979
H         -1.65900        0.98932        1.06475
C         -2.71130        0.22042       -1.40058
H         -2.90386       -0.50600       -2.19127
H         -3.52073        0.94770       -1.34172
H         -1.74246        0.70300       -1.54551
H          2.57454       -3.30752       -0.60217
H          2.43374       -2.14524       -1.94907
H          4.51544       -1.79415       -0.48710
H          3.46765       -0.37581       -0.60796
H          4.07376       -1.81209        1.75552
H          3.16594       -0.43449        1.57445
H          0.34639       -2.39892       -0.48799
H          1.27634       -1.70533        0.70270
C          2.44881       -2.25402       -0.86299
C          3.53657       -1.39226       -0.20860
N          1.15131       -1.79652       -0.31671
N          3.32513       -1.37725        1.23481
H          0.89809       -0.84384       -0.67900
