35
1sa1msa1ma1eda_27.log	Energy: -1035901.5138217
S          2.84178       -0.02641        0.08214
O          2.99562       -1.33039        0.76207
O          1.88508       -0.05428       -1.03015
O          2.62306        1.09412        1.02283
O          4.26386        0.27363       -0.64299
H          4.95031        0.29535        0.03750
S         -2.49260       -0.83098       -0.06869
O         -2.23629       -1.93903       -1.00431
O         -2.84652        0.46331       -0.66841
O         -1.32760       -0.67922        0.89650
C         -3.87296       -1.32020        0.95415
H         -4.73997       -1.43857        0.30352
H         -3.62946       -2.26375        1.44283
H         -4.05148       -0.53807        1.69225
N          0.58243       -2.40485       -0.11911
H          1.50144       -2.25199        0.33884
H         -0.12915       -1.81281        0.36959
C          0.16835       -3.82074       -0.18422
H         -0.80252       -3.86733       -0.67573
H          0.91249       -4.39129       -0.74002
H          0.09190       -4.21134        0.83051
H          0.67490       -1.97817       -1.04383
H          0.77882        2.94090       -0.84137
H         -0.19064        1.56653       -1.39238
H         -1.39775        3.77595       -1.70156
H         -2.26100        2.64013       -0.65380
H         -0.75698        4.99503        0.24510
H         -2.28030        4.53939        0.63057
H          0.94161        1.55698        0.92733
H         -0.40082        2.50483        1.34450
C         -0.14196        2.37794       -0.66761
C         -1.37418        3.27380       -0.72640
N         -0.04584        1.79088        0.69558
N         -1.35360        4.19234        0.41596
H         -0.61230        0.91805        0.78399
