39
1sa1msa1dma1tma_08.log	Energy: -1050489.6254934
S         -0.92597        1.69852       -0.61331
O         -0.75945        0.44396       -1.60533
O         -0.30854        2.87025       -1.21646
O         -2.40076        1.74959       -0.44788
O         -0.27203        1.27831        0.66449
H         -2.73071        0.25063        0.08703
H          1.33548        1.40797        0.70706
S          1.61935       -1.81483       -0.12681
O          0.30636       -2.28889        0.34431
O          2.51970       -1.32201        0.95321
O          1.51827       -0.80976       -1.23328
H          0.12498       -0.00415       -1.47919
C          2.44896       -3.22292       -0.84486
H          1.82875       -3.60350       -1.65664
H          3.41828       -2.89598       -1.22121
H          2.57028       -3.97630       -0.06609
N          2.38966        1.41863        0.77450
C          2.77800        2.16761        1.98225
C          2.93771        1.95885       -0.48891
H          2.62873        0.40657        0.87192
H          2.43785        3.20003        1.88689
H          2.30462        1.70490        2.84838
H          3.86312        2.14279        2.09849
H          2.48781        2.93358       -0.68157
H          4.02321        2.04231       -0.40568
H          2.67067        1.26622       -1.28660
N         -3.06786       -0.67455        0.48189
C         -2.31425       -0.93414        1.73715
H         -1.26422       -1.08885        1.48636
H         -2.41898       -0.06660        2.38883
H         -2.72674       -1.82752        2.21280
C         -4.51273       -0.47215        0.73069
H         -4.63585        0.35967        1.42482
H         -5.00193       -0.23003       -0.21322
H         -4.94053       -1.38352        1.15460
C         -2.81754       -1.73296       -0.53033
H         -3.25004       -1.41563       -1.47930
H         -1.74034       -1.86598       -0.63194
H         -3.28066       -2.66153       -0.18687
