27
1sa1msa1a1ma_141.log	Energy: -951823.5163726
S         -1.72329       -0.22941       -0.08039
O         -0.59224        0.07972       -0.97772
O         -1.91505       -1.64389        0.24273
O         -1.66125        0.64614        1.13757
O         -3.01392        0.25427       -0.89696
H         -0.50663        1.63981        0.92248
H         -3.81934       -0.20268       -0.50409
S          2.70305       -0.47628        0.09020
O          2.56782        0.90640       -0.35580
O          2.29362       -0.82335        1.43886
O          4.28054       -0.84519       -0.04523
H          4.58382       -1.16516        0.81673
C          1.99093       -1.55982       -1.11100
H          2.49800       -1.38475       -2.05999
H          2.12772       -2.58331       -0.76328
H          0.93187       -1.28312       -1.17342
N         -4.89157       -1.27172        0.32434
H         -4.15600       -1.93376        0.56888
H         -5.61055       -1.75820       -0.19904
H         -5.30018       -0.91878        1.18268
N          0.25395        2.33949        0.60642
H          0.58744        2.86761        1.40919
C         -0.30953        3.21448       -0.44777
H          0.44725        3.91865       -0.79428
H         -0.63097        2.56623       -1.26255
H         -1.16968        3.74733       -0.04315
H          1.03995        1.78589        0.23256
