23
1sa1msa1ma_62.log	Energy: -916314.3858668
S          2.38335       -0.09327        0.08404
O          3.78811       -0.38178        0.14400
O          1.50829       -0.37024        1.20901
O          2.18221        1.48283       -0.18079
O          1.81242       -0.75301       -1.21550
H          2.89306        1.79749       -0.75857
H          0.80555       -0.73147       -1.21605
S         -1.66486       -1.12229       -0.05129
O         -1.80888       -2.56086       -0.01309
O         -0.77244       -0.55484       -1.08419
O         -1.18859       -0.56104        1.36185
H         -0.20184       -0.50340        1.38688
C         -3.23455       -0.32444       -0.17753
H         -3.66718       -0.64845       -1.12513
H         -3.84479       -0.66991        0.65762
H         -3.07479        0.76249       -0.14989
N         -2.37509        2.85465       -0.08745
H         -2.58753        3.32544       -0.96083
C         -0.92590        2.71572        0.08303
H         -0.37283        3.66473        0.06283
H         -0.72304        2.22284        1.03673
H         -0.53307        2.06757       -0.70325
H         -2.77018        3.42287        0.65447
