33
1sa1msa1ma1dma_19.log	Energy: -1001168.3591031
S          2.70978       -0.07178       -0.20357
O          2.60162       -1.24701       -1.09697
O          2.47818        1.21106       -0.90227
O          1.94772       -0.20801        1.04050
O          4.25532       -0.03641        0.29490
H          4.82219        0.05481       -0.48274
S         -2.68215       -0.28929        0.01123
O         -2.81967        0.87476        0.90047
O         -2.83167       -1.61863        0.61778
O         -1.37097       -0.20178       -0.76111
C         -3.94711       -0.13293       -1.24037
H         -4.91470       -0.19250       -0.74130
H         -3.82966        0.83240       -1.73300
H         -3.83542       -0.94750       -1.95617
N          0.17968       -2.39710       -0.38660
H          1.14368       -2.12719       -0.68119
H         -0.42277       -1.54406       -0.53204
C          0.13489       -2.82666        1.03481
H         -0.90941       -2.93182        1.32742
H          0.67680       -3.76624        1.14500
H          0.61973       -2.04785        1.62131
H         -0.17126       -3.12253       -1.00752
N          0.00573        2.02199        0.11620
C          0.00555        2.24249        1.58070
C         -0.68784        3.07585       -0.65086
H          0.97762        1.89571       -0.23096
H         -1.02694        2.21490        1.92958
H          0.58591        1.44126        2.03630
H          0.46847        3.20799        1.79261
H         -1.72819        3.10896       -0.32386
H         -0.20150        4.03632       -0.47326
H         -0.63742        2.82584       -1.71077
H         -0.47444        1.11998       -0.10132
