40
1sa1msa2eda_227.log	Energy: -1095278.8568961
S          0.00625       -1.86882       -0.25686
O         -1.10990       -2.80130       -0.28873
O          1.35206       -2.46391       -0.37688
O         -0.16729       -0.71806       -1.19665
O         -0.07534       -1.21062        1.22084
H         -1.79998       -0.35517       -1.28242
H          0.69655       -0.60706        1.32917
S          3.28406        0.27112        0.31435
O          4.51316        0.92419        0.70275
O          2.10081        0.44258        1.17232
O          3.58445       -1.26715        0.14842
H          2.73078       -1.77786       -0.02891
C          2.82464        0.77819       -1.32925
H          2.66844        1.85754       -1.29656
H          3.64670        0.52950       -2.00030
H          1.90197        0.26009       -1.60391
H         -4.73161       -0.82193       -0.97439
H         -3.42839       -2.03594       -1.07515
H         -3.98916       -2.00058        1.19154
H         -2.50095       -1.08231        1.09607
H         -5.18604        0.03878        1.45483
H         -3.87484        0.21487        2.40140
H         -3.03148        0.04377       -2.32186
H         -2.84704        0.93316       -0.88116
C         -3.70149       -1.05382       -0.68622
C         -3.56042       -1.05664        0.82970
N         -2.80797       -0.05236       -1.33343
N         -4.17464        0.12943        1.43567
H         -1.35728        2.80772        1.60419
H         -1.27788        1.14001        1.01930
H          0.71581        2.36956        0.33783
H         -0.21923        1.86956       -1.06800
H         -0.10482        4.59101        0.01676
H          0.19948        4.09627       -1.50701
H         -3.44034        2.23952        0.60223
H         -2.65525        3.25946       -0.46557
C         -1.38529        2.18234        0.69990
C         -0.21884        2.54736       -0.20793
N         -2.65050        2.33906       -0.03051
N         -0.38053        3.92141       -0.69483
