30
1sa1msa2ma_67.log	Energy: -976492.1332138
S         -1.43340        0.68836       -0.52479
O         -1.06376       -0.74562       -0.76145
O         -0.81013        1.61190       -1.48427
O         -2.98423        0.76339       -0.76196
O         -1.17087        1.06549        0.88954
H         -3.43482        0.13121       -0.07645
H          0.33238        2.06935        0.91072
S          2.30024       -1.12175        0.11381
O          1.86454       -1.43628        1.46368
O          2.71673        0.27478       -0.12903
O          1.26421       -1.56543       -0.96014
H          0.29006       -1.17582       -0.83976
C          3.66780       -2.15641       -0.34646
H          4.49437       -1.90081        0.31698
H          3.36931       -3.19545       -0.21024
H          3.92288       -1.95176       -1.38562
N         -3.85960       -0.93019        1.03752
H         -3.13822       -0.79356        1.74211
C         -3.78772       -2.28939        0.48069
H         -3.90962       -3.07223        1.23793
H         -4.56693       -2.40397       -0.27615
H         -2.81914       -2.40554       -0.00888
H         -4.75458       -0.76041        1.48491
N          1.09307        2.45941        0.31722
H          1.79228        1.69645        0.20673
C          1.67362        3.71768        0.81776
H          2.43095        4.06954        0.11750
H          0.88703        4.46573        0.91466
H          2.13222        3.53877        1.78993
H          0.61387        2.54123       -0.59475
