24
1sa1msa2a_54.log	Energy: -927170.8292671
S         -1.29066       -0.91548       -0.28072
O         -2.56881       -1.55087        0.01250
O         -0.11764       -1.81116       -0.25943
O         -1.30620       -0.04581       -1.49072
O         -1.09954        0.12641        0.95616
H         -2.14306        1.26686       -1.16094
H         -0.17159        0.46238        0.93436
S          2.62345        0.21667        0.27542
O          3.38492       -0.24255        1.41872
O          1.41581        1.02088        0.53710
O          2.25479       -0.96749       -0.69048
H          1.30685       -1.31569       -0.53818
C          3.68191        1.15978       -0.79419
H          4.02546        2.02267       -0.22307
H          4.52361        0.52785       -1.07756
H          3.10905        1.46702       -1.66827
N         -2.70498        2.07707       -0.74645
H         -3.22059        2.57083       -1.46935
H         -2.05728        2.71253       -0.28707
H         -3.37062        1.64048       -0.01038
N         -4.18598        0.68941        1.09964
H         -3.87600       -0.24277        0.80514
H         -5.19860        0.68487        1.16691
H         -3.81352        0.82466        2.03536
