35
1sa1msa1ma1eda_243.log	Energy: -1035883.6571801
S          0.10562       -0.90527       -0.63501
O          1.22156       -1.47327       -1.40854
O         -1.11645       -1.73675       -0.64424
O          0.51451       -0.50911        0.73813
O         -0.24996        0.44895       -1.41311
H         -1.10717        0.79398       -1.06529
S         -3.74134        0.36832        0.14012
O         -4.83034        0.28979       -0.81165
O         -2.56928        1.18246       -0.21618
O         -3.25958       -1.06584        0.57800
H         -2.40202       -1.34496        0.10283
C         -4.36755        0.96476        1.69213
H         -4.77242        1.96089        1.51168
H         -5.15348        0.28544        2.02195
H         -3.54769        0.99666        2.40861
N          3.15177       -1.31329        0.53374
H          2.31300       -0.92920        1.00666
H          2.75970       -1.51765       -0.40396
C          3.66383       -2.52524        1.19895
H          4.51243       -2.91600        0.63738
H          3.98012       -2.27681        2.21226
H          2.87436       -3.27573        1.23650
H          3.86908       -0.53852        0.46253
H          4.63744        2.94554       -0.34641
H          4.68595        1.61502       -1.51369
H          2.39676        2.63320       -1.26570
H          2.43246        0.91469       -0.95917
H          2.03178        2.99857        1.00904
H          1.37115        1.49707        0.89764
H          5.80634        1.00799        0.53301
H          4.43156        1.31968        1.38340
C          4.29440        1.91837       -0.53773
C          2.76549        1.87712       -0.56055
N          4.79266        0.98739        0.48955
N          2.23149        2.02895        0.79281
