35
1sa1msa1ma1eda_165.log	Energy: -1035885.5695278
S          0.31440       -0.86560       -0.55201
O         -0.85047       -1.77574       -0.55978
O          1.48502       -1.35651       -1.27967
O         -0.11840        0.44522       -1.38449
O          0.63993       -0.38547        0.81831
H         -1.00489        0.73733       -1.06404
H          2.15605        0.34390        0.81240
S         -3.63315        0.18404        0.10098
O         -4.71246        0.03499       -0.85330
O         -2.50701        1.05895       -0.26144
O         -3.07626       -1.21554        0.55588
H         -2.18043       -1.44165        0.12186
C         -4.29705        0.76561        1.64309
H         -4.74873        1.73919        1.45107
H         -5.05088        0.05217        1.97578
H         -3.48363        0.84340        2.36345
N          4.01075       -1.90568        0.14551
H          3.32054       -1.98813       -0.60337
C          3.53676       -2.66891        1.30850
H          3.39570       -3.73576        1.10130
H          4.24855       -2.56462        2.13214
H          2.57465       -2.25838        1.62772
H          4.89122       -2.27662       -0.19530
H          4.14480        1.67435       -0.94231
H          2.63869        0.85853       -1.43267
H          2.31531        3.34142       -1.33535
H          1.29987        2.49568       -0.17009
H          3.70295        4.04651        0.44657
H          2.25113        4.05328        1.19517
H          3.69757       -0.22149        0.48254
H          3.45977        1.27531        1.35169
C          3.10875        1.46662       -0.65795
C          2.33556        2.75458       -0.40857
N          3.13109        0.67239        0.59424
N          2.92744        3.45841        0.73217
