36
1sa1msa2dma_213.log	Energy: -1025796.5688714
S          1.34065        0.40154       -0.15983
O          0.16539        0.64940       -1.01858
O          2.32942        1.47415       -0.12032
O          0.80598        0.29605        1.34489
O          1.96931       -0.92589       -0.46751
H          0.01556       -0.29418        1.36267
H          3.45999       -0.84284       -0.21352
S         -2.37604       -1.44617        0.07915
O         -3.64751       -0.82436        0.39578
O         -1.30770       -1.38607        1.08583
O         -1.82803       -0.91581       -1.29722
H         -1.02028       -0.30392       -1.18646
C         -2.66256       -3.15260       -0.31902
H         -3.08367       -3.62012        0.57142
H         -3.37221       -3.19163       -1.14527
H         -1.71168       -3.60933       -0.59073
N          4.51774       -0.69071       -0.02148
C          4.65947       -0.13370        1.34768
C          5.05620        0.19508       -1.08336
H          4.96558       -1.60459       -0.07077
H          4.11041        0.80776        1.37711
H          4.21715       -0.83282        2.05748
H          5.71573        0.02327        1.57309
H          4.49007        1.12617       -1.04857
H          6.11880        0.37459       -0.91019
H          4.90473       -0.28596       -2.04972
N         -3.40831        2.35659        0.17783
C         -2.43119        2.40941        1.25181
C         -2.86360        2.81375       -1.08988
H         -3.74622        1.40444        0.08548
H         -2.18832        3.45527        1.47514
H         -2.85458        1.96126        2.15485
H         -1.48345        1.89417        1.01741
H         -2.63891        3.88510       -1.02357
H         -1.93497        2.29643       -1.38612
H         -3.60829        2.67854       -1.87975
