35
1sa1msa1ma1eda_195.log	Energy: -1035886.0039275
S          0.02773        0.56444       -0.94401
O          1.22767        1.03076       -1.66133
O         -0.01089        1.03287        0.46605
O         -1.23974        0.80409       -1.65264
O          0.12702       -1.04242       -0.88348
H          1.01944       -1.27708       -0.52587
S          3.61036       -0.38381        0.43582
O          4.96453       -0.81888        0.68801
O          2.58467       -1.40111        0.16451
O          3.65259        0.64128       -0.76606
H          2.73268        0.80227       -1.13950
C          3.03473        0.60666        1.79695
H          3.00556       -0.04373        2.67227
H          3.74645        1.41907        1.94338
H          2.03582        0.97727        1.55322
N         -2.70871        1.64406        0.50800
H         -1.76484        1.50347        0.91111
H         -2.50471        1.48927       -0.49534
C         -3.25317        2.98546        0.78306
H         -4.21254        3.09823        0.27764
H         -3.39372        3.10734        1.85730
H         -2.55791        3.74187        0.41881
H         -3.34305        0.85308        0.84220
H         -5.16659       -2.26850        0.42161
H         -5.23784       -0.77694       -0.53155
H         -3.60820       -2.44224       -1.45742
H         -2.83861       -0.91733       -1.04609
H         -2.51480       -3.42442        0.36369
H         -1.43476       -2.22619        0.04104
H         -5.00583       -0.45843        1.93388
H         -3.50286       -1.11793        1.78860
C         -4.59868       -1.37431        0.12741
C         -3.32799       -1.79603       -0.61471
N         -4.21889       -0.57197        1.30281
N         -2.39229       -2.41958        0.31851
