27
1sa1msa1a1ma_103.log	Energy: -951830.9282509
S          1.04894        1.55802       -0.03150
O          1.59074        0.82641       -1.18977
O          0.48631        0.53513        0.95900
O          1.89848        2.54156        0.59381
O         -0.24980        2.36293       -0.53413
H         -0.86785        1.73625       -0.96202
S         -2.40026       -0.56871       -0.00539
O         -1.94322       -1.95906       -0.03059
O         -2.02567        0.25085       -1.16254
O         -1.95723        0.14161        1.31883
H         -0.95098        0.39993        1.25487
C         -4.16015       -0.54072        0.19830
H         -4.40803       -1.09257        1.10461
H         -4.47878        0.49884        0.26787
H         -4.58821       -1.02287       -0.68088
N          0.92468       -1.75637       -0.48516
H          0.97513       -1.15838       -1.31675
H          0.10761       -2.36702       -0.51955
H          1.85730       -2.23312       -0.34595
H          0.78253       -1.05721        0.27493
N          3.60331       -2.43665       -0.01835
H          3.85102       -3.13459        0.67656
C          3.98445       -1.08840        0.44736
H          5.05756       -0.98231        0.63870
H          3.68037       -0.35021       -0.29833
H          3.44275       -0.86109        1.36866
H          4.12207       -2.67423       -0.85883
