32
1sa1msa1a1eda_245.log	Energy: -1011228.4573573
S          0.40022       -0.13719       -1.16058
O          0.18095       -0.91016        0.11135
O          0.10929        1.28944       -0.96738
O          1.73459       -0.42565       -1.71615
O         -0.61508       -0.72560       -2.23153
H         -1.52597       -0.66906       -1.85163
S         -3.16262        0.07227        0.47117
O         -4.41814       -0.16639        1.14550
O         -2.94935       -0.52089       -0.85545
O         -2.00076       -0.40443        1.43585
H         -1.15281       -0.59997        0.92398
C         -2.88297        1.82249        0.32962
H         -3.65997        2.21454       -0.32793
H         -2.96371        2.25893        1.32502
H         -1.89135        1.97198       -0.10333
N          2.16335       -3.12587        1.12187
H          2.43289       -3.87564        0.49237
H          1.31200       -2.70561        0.74209
H          1.92006       -3.55529        2.00890
H          4.58665        0.48065        1.72988
H          5.00298        0.06662        0.04620
H          4.42220        2.54960        0.38414
H          3.43382        1.72660       -0.82541
H          2.51220        2.88123        1.59567
H          1.62109        2.18119        0.38548
H          3.19383       -1.48934        1.03711
H          2.30931       -0.07941        1.19637
C          4.21107        0.42792        0.70511
C          3.65201        1.78450        0.24605
N          3.08018       -0.52170        0.67376
N          2.43129        2.07574        0.99129
H          2.70881       -0.61546       -0.29909
