26
1sa1msa1dma_38.log	Energy: -940992.6097337
S          2.17048       -0.89263       -0.13029
O          2.78320       -1.90791       -0.96551
O          0.76106       -0.53735       -0.42614
O          2.06524       -1.53231        1.36761
O          2.95128        0.36283        0.02463
H          2.74636       -2.21427        1.43809
H          1.91606        1.59032        0.02364
S         -2.43988       -0.26240        0.02205
O         -2.27584        0.74838       -1.01909
O         -2.19158        0.15801        1.39624
O         -1.58966       -1.55028       -0.32818
H         -0.61273       -1.30042       -0.37428
C         -4.06051       -0.97769       -0.09751
H         -4.19711       -1.35799       -1.10921
H         -4.13911       -1.77547        0.64041
H         -4.77275       -0.18077        0.11811
N          1.26181        2.42772        0.06307
C          0.41116        2.30784        1.27581
C          0.49462        2.52120       -1.20695
H          1.86837        3.24206        0.15291
H         -0.18433        1.39836        1.19816
H          1.05992        2.25062        2.15004
H         -0.24835        3.17428        1.34241
H         -0.17692        1.66532       -1.26916
H         -0.08369        3.44662       -1.20829
H          1.20078        2.50879       -2.03719
