35
1sa1msa1ma1eda_74.log	Energy: -1035892.5390495
S          0.83977        0.72757        0.88752
O          0.51733       -0.83997        0.70455
O         -0.24946        1.32533        1.67631
O          2.14787        0.67392        1.59253
O          0.93937        1.28987       -0.47518
H          2.93074       -0.56661        1.00051
H         -1.08775        1.69595       -1.09174
S         -2.99459       -1.15484       -0.33192
O         -3.66133       -2.26360       -1.00169
O         -3.71195        0.15705       -0.42405
O         -1.56002       -0.95681       -0.74695
H         -0.32713       -0.94557        0.14416
C         -2.92206       -1.53246        1.41573
H         -3.94509       -1.60914        1.78516
H         -2.40349       -2.48416        1.53809
H         -2.38262       -0.73258        1.92668
N         -1.85388        2.05856       -0.51455
H         -2.64028        1.34355       -0.53300
C         -2.29285        3.40299       -0.92739
H         -3.06454        3.74924       -0.24020
H         -1.44649        4.08989       -0.90723
H         -2.70642        3.35062       -1.93437
H         -1.45172        2.03759        0.43832
H          3.54059       -1.91396       -1.59402
H          2.30011       -0.66722       -1.26947
H          4.37896        0.35282       -2.25513
H          4.02064        0.95342       -0.63469
H          6.15817       -0.90990       -1.35131
H          6.19973        0.37065       -0.33634
H          2.68274       -2.17715        0.62808
H          4.27273       -1.58782        0.69934
C          3.29881       -1.02085       -1.01112
C          4.34376        0.07186       -1.19608
N          3.30265       -1.39361        0.43070
N          5.62378       -0.39763       -0.65806
