39
1sa1msa1dma1tma_91.log	Energy: -1050469.2488114
S         -0.61308        2.17143       -0.49350
O         -1.17501        2.73963       -1.70629
O         -1.23340        2.53539        0.77754
O         -0.39226        0.68251       -0.55729
O          0.94179        2.70882       -0.43200
H          0.97792        3.52010       -0.95607
S          2.62424       -0.83626       -0.08657
O          3.47884       -1.96701       -0.37719
O          1.77545       -0.86812        1.10555
O          1.70765       -0.60092       -1.35897
H          0.90846       -0.04087       -1.11821
C          3.59947        0.64971       -0.02644
H          4.26632        0.56744        0.83260
H          4.16962        0.71306       -0.95324
H          2.91831        1.49597        0.07730
N         -2.19577       -1.64717       -1.18514
C         -3.47512       -1.72165       -1.87583
C         -1.23737       -2.62694       -1.68232
H         -1.79904       -0.71852       -1.30639
H         -3.95245       -2.68497       -1.66429
H         -4.13898       -0.92950       -1.51683
H         -3.38560       -1.62337       -2.97039
H         -1.58814       -3.63798       -1.44475
H         -1.08290       -2.57045       -2.77204
H         -0.26795       -2.47800       -1.19922
N         -1.23233       -0.50310        1.84317
C         -1.03294       -1.97365        1.92842
H         -1.54768       -2.42219        1.07753
H          0.03601       -2.17740        1.87972
H         -1.45614       -2.32777        2.87128
C         -0.53068        0.22482        2.93324
H          0.52840       -0.02385        2.88110
H         -0.67398        1.29295        2.76933
H         -0.95775       -0.08454        3.88971
C         -2.67706       -0.15539        1.79178
H         -2.76462        0.92208        1.65099
H         -3.11333       -0.68943        0.94690
H         -3.14345       -0.46555        2.72952
H         -0.81719       -0.17185        0.94631
