29
1sa1msa1tma_36.log	Energy: -965648.3024024
S          0.88284        1.68932       -0.07131
O          0.56017        3.08906        0.12533
O          0.11776        0.98697       -1.11887
O          2.34474        1.39033       -0.16005
O          0.52215        0.87971        1.31486
H          2.52257       -0.11227       -0.12397
H         -0.44851        0.80432        1.38851
S         -2.60639       -0.57564        0.04831
O         -1.81160       -1.72927       -0.31173
O         -2.22830        0.24075        1.20220
O         -4.11017       -1.10375        0.36452
H         -4.37912       -0.74373        1.22212
C         -2.88219        0.45255       -1.36609
H         -1.90295        0.87624       -1.61060
H         -3.26934       -0.17675       -2.16727
H         -3.59317        1.22910       -1.08549
N          2.67637       -1.18171       -0.04256
C          1.51066       -1.85617       -0.66795
H          0.60627       -1.60188       -0.11683
H          1.40011       -1.48896       -1.68781
H          1.67474       -2.93704       -0.65782
C          3.93634       -1.48251       -0.75489
H          3.81749       -1.21606       -1.80542
H          4.73988       -0.88684       -0.32050
H          4.16501       -2.54729       -0.66263
C          2.76660       -1.47576        1.40678
H          3.62628       -0.94721        1.81998
H          1.85836       -1.10482        1.88130
H          2.87808       -2.55287        1.55510
