36
1sa1msa2dma_185.log	Energy: -1025802.8372204
S          0.75132       -1.67215        0.09622
O         -0.41758       -2.38928        0.62658
O          1.99793       -2.43315       -0.02259
O          0.41139       -1.27369       -1.42623
O          0.96812       -0.37058        0.80675
H         -0.48228       -0.85291       -1.43707
H          2.51976        0.05389        0.47604
S         -2.99800       -0.07137       -0.05893
O         -4.26556       -0.63336       -0.47490
O         -1.92409        0.01529       -1.06460
O         -2.44413       -0.82248        1.21837
H         -1.69170       -1.45452        1.00449
C         -3.24759        1.55005        0.61392
H         -3.77107        2.12468       -0.15153
H         -3.86563        1.45279        1.50655
H         -2.26788        1.98816        0.83003
N         -0.01193        2.37732        0.25737
C          1.10603        2.92239        0.99637
C         -0.05773        2.82447       -1.12230
H          0.03960        1.36229        0.29146
H          0.99135        4.00556        1.11523
H          1.14563        2.47138        1.99127
H          2.08685        2.75551        0.50039
H         -0.24925        3.90293       -1.16068
H          0.88251        2.63539       -1.67539
H         -0.86727        2.30859       -1.64405
N          3.47240       -0.06575        0.02805
C          4.54987        0.46738        0.88337
C          3.40924        0.50276       -1.33919
H          3.50318       -1.09488       -0.03678
H          4.40208        1.54120        1.00654
H          4.50099       -0.02258        1.85563
H          5.51789        0.27748        0.41737
H          3.25522        1.58007       -1.26188
H          4.34102        0.29172       -1.86569
H          2.56492        0.04449       -1.85654
