42
1sa1msa2tma_18.log	Energy: -1075135.1653476
S          0.94490        0.66475       -0.33919
O          1.02097        1.58529        0.80565
O          0.86198       -0.76551        0.10650
O         -0.14969        1.00657       -1.28087
O          2.26968        0.77731       -1.17564
H          3.05105        0.27970       -0.66455
S         -2.45241       -1.83569        0.08845
O         -3.02225       -0.72667       -0.67902
O         -2.40011       -1.65805        1.53552
O         -1.05859       -2.25807       -0.48407
H         -0.29036       -1.59752       -0.24992
C         -3.36594       -3.31103       -0.29765
H         -4.38913       -3.14759        0.04174
H         -3.33470       -3.46360       -1.37604
H         -2.91142       -4.14758        0.23217
N         -2.03900        2.34168        0.04945
C         -1.34234        3.65184        0.07015
H         -0.36472        3.50400        0.53080
H         -1.21229        3.99565       -0.95643
H         -1.94336        4.36680        0.63713
C         -3.33746        2.40626       -0.66045
H         -3.16455        2.76855       -1.67450
H         -3.75767        1.40193       -0.69561
H         -4.00099        3.09070       -0.12604
C         -2.18023        1.78423        1.42092
H         -2.64857        0.80288        1.35755
H         -1.18204        1.68533        1.84894
H         -2.79397        2.46605        2.01513
H         -1.39691        1.69714       -0.49367
N          4.14757       -0.46398        0.08354
C          3.98264       -1.88561       -0.22858
H          2.96676       -2.18670        0.03478
H          4.12336       -2.03999       -1.30129
H          4.70907       -2.50404        0.32091
C          5.44921        0.03706       -0.35270
H          5.55922       -0.11903       -1.42881
H          5.51405        1.10892       -0.14962
H          6.27585       -0.47330        0.16614
C          3.92627       -0.21027        1.51090
H          3.96872        0.86494        1.69878
H          2.93089       -0.56459        1.78576
H          4.68295       -0.71935        2.12760
