38
1sa1msa1dma1eda_341.log	Energy: -1060535.6546401
S         -0.17898       -0.90819       -0.58754
O          0.51739        0.37093       -0.90951
O         -1.40319       -1.12288       -1.34819
O          0.80468       -2.07963       -1.02455
O         -0.37623       -1.03649        0.88633
H          1.70720       -1.89288       -0.67024
H         -1.87138       -1.00204        1.33799
S          3.81860       -0.00485        0.10909
O          4.80640        0.33279       -0.89463
O          3.18303       -1.32832        0.04220
O          2.69620        1.09938        0.19433
H          1.82604        0.79280       -0.24319
C          4.54773        0.16786        1.72028
H          5.36445       -0.55237        1.77689
H          4.92598        1.18548        1.81640
H          3.78621       -0.04544        2.46938
N         -1.72870        2.32511       -0.07472
C         -1.58048        3.64353        0.51969
C         -2.35878        2.36319       -1.38703
H         -0.81761        1.88420       -0.17410
H         -2.56965        4.07694        0.71041
H         -1.05834        3.56097        1.47707
H         -1.02453        4.35098       -0.11872
H         -3.41959        2.62602       -1.28196
H         -1.89793        3.09550       -2.07057
H         -2.28634        1.37519       -1.84874
H         -4.51955        0.28782        1.88598
H         -3.10323        0.96871        0.99330
H         -5.01438        0.24197       -0.53374
H         -3.45465       -0.53414       -0.86086
H         -5.79653       -1.81424        0.29775
H         -4.66862       -2.40698       -0.73589
H         -2.75590       -0.90529        2.76373
H         -3.33097       -1.88233        1.52730
C         -3.71872        0.07662        1.17099
C         -4.27614       -0.46831       -0.14442
N         -2.85795       -0.99232        1.75591
N         -4.80801       -1.81649        0.07484
