35
1sa1msa1ma1eda_138.log	Energy: -1035889.4162800
S         -0.29916       -1.75459        0.30060
O         -0.61443       -0.36652       -0.02770
O          0.66309       -1.75348        1.54898
O         -1.38478       -2.66185        0.57550
O          0.55995       -2.36588       -0.86021
H          1.30256       -1.72341       -1.10867
S          2.68902        0.46623       -0.38143
O          1.95969        1.69728       -0.76431
O          2.46474       -0.67236       -1.31143
O          2.44336        0.08804        1.04362
H          1.38693       -1.06232        1.41148
C          4.42415        0.84435       -0.49808
H          4.63696        1.12413       -1.52979
H          4.64074        1.66821        0.18183
H          4.98234       -0.04827       -0.21608
N         -0.43527        2.35786        0.37457
H         -1.46070        2.13622        0.18129
H          0.21094        1.79827       -0.21288
C         -0.13120        2.09645        1.80142
H          0.93355        2.24692        1.97475
H         -0.72849        2.76131        2.42663
H         -0.38177        1.05732        2.00552
H         -0.25406        3.33124        0.13780
H         -4.96769        1.61819       -0.92802
H         -3.51932        2.04871       -1.85578
H         -4.09780       -0.36587       -2.09613
H         -2.50410       -0.13171       -1.36585
H         -4.86432       -1.14221       -0.03495
H         -3.27752       -1.51172        0.19706
H         -3.66363        2.76357        0.59186
H         -3.36695        1.18338        0.91293
C         -3.88012        1.47302       -0.99663
C         -3.57649       -0.01323       -1.19634
N         -3.20596        1.93135        0.23107
N         -3.92970       -0.75543        0.01186
