20
1sa1msa1a_24.log	Energy: -891664.2461736
S         -1.77790        0.76677        0.02721
O         -1.09840        1.92339        0.56253
O         -3.21922        0.69280       -0.03526
O         -1.28051        0.48716       -1.46363
O         -1.20473       -0.48058        0.80973
H         -0.29608        0.47141       -1.46956
H         -1.75080       -1.32650        0.55402
S          2.17562       -0.26041       -0.05843
O          2.13823       -1.68612        0.15865
O          1.43740        0.32993       -1.17973
O          3.71737        0.18213       -0.29309
H          3.77484        0.64144       -1.14372
C          1.80621        0.59683        1.44767
H          0.79261        0.30717        1.72820
H          2.53476        0.27835        2.19321
H          1.85771        1.66809        1.25784
N         -2.72916       -2.46409        0.06073
H         -2.93841       -3.18861        0.73966
H         -2.40299       -2.91006       -0.79103
H         -3.58960       -1.96522       -0.15393
