40
1sa1msa2eda_202.log	Energy: -1095281.4472928
S          0.52152       -1.53084       -0.05855
O         -0.79296       -2.04621        0.42151
O          1.46514       -2.53635       -0.51590
O          0.31326       -0.39172       -0.99574
O          1.13335       -0.86235        1.27566
H         -0.55978        0.87675        0.01549
H          2.18711       -0.84402        1.24589
S         -3.49442        0.02130       -0.13628
O         -2.93790        0.97172       -1.09367
O         -3.24946        0.35946        1.27771
O         -3.04441       -1.43779       -0.43413
H         -2.06960       -1.66565       -0.11140
C         -5.24109       -0.14271       -0.39521
H         -5.68255        0.84048       -0.23115
H         -5.40128       -0.47287       -1.42132
H         -5.62745       -0.86955        0.31843
H          5.43991       -1.12312        0.07350
H          3.98585       -2.07986       -0.31721
H          4.41923       -0.30648       -2.01324
H          2.85503       -0.14491       -1.22723
H          5.16436        1.58252       -0.83421
H          3.56510        1.95870       -0.99099
H          4.08791       -1.31625        2.02323
H          3.97496        0.23390        1.46192
C          4.34470       -1.09309       -0.01579
C          3.93236       -0.05986       -1.06012
N          3.72364       -0.73718        1.27279
N          4.22403        1.29534       -0.58723
H          1.91736        2.25930        0.91092
H          1.53815        3.89658        0.40440
H         -0.21943        3.14868        1.90740
H         -0.91673        3.27087        0.27724
H          0.01908        0.73702        1.51678
H         -1.58646        1.18382        1.28842
H          1.14156        1.46359       -1.22567
H          0.82321        3.00703       -1.71243
C          1.22322        2.85283        0.30311
C         -0.18698        2.74008        0.89382
N          1.38128        2.44395       -1.08058
N         -0.61733        1.32337        0.95503
