42
1sa1msa2tma_46.log	Energy: -1075128.2365387
S         -0.32070        2.33280       -0.27330
O         -1.78665        2.11992       -0.39826
O          0.05279        3.01872        0.96402
O          0.45419        1.11825       -0.56906
O          0.08866        3.31412       -1.50332
H         -0.33339        4.17134       -1.35512
S         -2.46813       -1.29181       -0.20768
O         -3.09664       -1.05229        1.08635
O         -1.04871       -1.64945       -0.17955
O         -2.72383       -0.10179       -1.19748
H         -2.32295        0.78681       -0.87461
C         -3.35757       -2.55969       -1.07728
H         -4.40160       -2.25773       -1.15441
H         -2.90776       -2.68305       -2.06196
H         -3.26149       -3.47298       -0.48947
N          0.88710       -0.30346        1.77997
C         -0.26878        0.11094        2.62174
H         -0.44376        1.17652        2.46728
H         -1.14995       -0.45873        2.32509
H         -0.02062       -0.08383        3.66753
C          1.18081       -1.75102        1.91771
H          0.28932       -2.30799        1.63453
H          2.00331       -1.98372        1.24098
H          1.45720       -1.95169        2.95534
C          2.08764        0.52838        2.05821
H          2.87504        0.20390        1.37836
H          1.83123        1.57246        1.87504
H          2.38063        0.37831        3.09973
H          0.63126       -0.10643        0.79117
N          3.04825       -1.11248       -0.78980
C          3.54028        0.16959       -1.27790
H          2.71990        0.89063       -1.29671
H          4.32386        0.54432       -0.60985
H          3.97021        0.08939       -2.29365
C          4.12512       -2.08393       -0.70336
H          4.90324       -1.72153       -0.02344
H          3.74220       -3.03304       -0.31276
H          4.59327       -2.28468       -1.68557
C          1.96666       -1.60474       -1.63561
H          1.55787       -2.53023       -1.21775
H          1.16186       -0.86846       -1.67135
H          2.31133       -1.81082       -2.66631
