38
1sa1msa1dma1eda_32.log	Energy: -1060564.8302223
S         -2.86264        0.20339       -0.27134
O         -2.91163       -1.19940       -0.73823
O         -2.02882        0.39034        0.92055
O         -2.58386        1.16992       -1.35446
O         -4.36164        0.55091        0.25658
H         -4.97076        0.46546       -0.48922
S          2.53860       -0.69695       -0.13076
O          2.50984       -1.85197        0.78089
O          3.16504        0.53016        0.38427
O          1.14645       -0.42158       -0.67070
C          3.48538       -1.18867       -1.56460
H          4.50266       -1.39968       -1.23344
H          3.02980       -2.08105       -1.99441
H          3.47896       -0.36919       -2.28354
N         -0.59277       -2.27776        0.37942
C         -0.15856       -3.54470       -0.24314
C         -0.55471       -2.28624        1.85902
H          0.03944       -1.52011        0.03242
H         -0.80555       -4.35549        0.09567
H         -0.23446       -3.44128       -1.32592
H          0.87707       -3.73143        0.04426
H         -1.18406       -3.09848        2.22727
H          0.48140       -2.42248        2.17106
H         -0.94164       -1.32852        2.20562
H         -1.53948       -2.01458        0.03950
H         -0.53059        3.82145        0.31523
H         -0.74047        2.32050        1.25122
H          1.32200        3.75849        1.90476
H          1.66410        2.06452        1.53663
H          2.67057        4.29023        0.15209
H          2.97884        2.68262       -0.06443
H         -0.96625        1.90536       -1.09744
H          0.59957        2.56876       -1.33552
C         -0.08456        2.85456        0.56310
C          1.33674        3.01356        1.10263
N         -0.02319        2.06887       -0.69480
N          2.24655        3.38255        0.01529
H          0.41059        1.12804       -0.55078
