33
1sa1msa1a1tma_82.log	Energy: -1001134.0662064
S         -0.75798       -2.03142       -0.09496
O         -1.68963       -3.10811        0.12925
O          0.50971       -2.29982       -0.76776
O         -1.43843       -0.86843       -0.88767
O         -0.45791       -1.40327        1.32723
H         -2.43267       -0.76357       -0.56917
H          0.28375       -0.74376        1.25709
S          2.71809        0.19825        0.13072
O          3.82737       -0.47609        0.76854
O          1.47857        0.37268        0.90722
O          2.35148       -0.47165       -1.25837
H          1.67194       -1.19382       -1.13408
C          3.23299        1.79081       -0.45458
H          4.07881        1.64504       -1.12629
H          2.39460        2.26020       -0.96787
H          3.53158        2.36711        0.42162
N         -3.87636       -0.72883       -0.01205
H         -4.58852       -0.55755       -0.71498
H         -3.98279       -0.03550        0.72254
H         -4.03924       -1.64917        0.39002
N         -1.72481        2.95071        0.18994
C         -0.43402        2.86420       -0.47126
H         -0.38886        3.59680       -1.28352
H          0.35641        3.09600        0.24895
H         -0.23751        1.85882       -0.88773
C         -1.78512        2.07127        1.34393
H         -0.99200        2.33112        2.05041
H         -2.74537        2.20299        1.85502
H         -1.66132        1.00593        1.08029
C         -2.80603        2.69014       -0.74056
H         -3.76869        2.79438       -0.22846
H         -2.78007        3.42171       -1.55367
H         -2.75001        1.67982       -1.19035
