32
1sa1msa1a1eda_71.log	Energy: -1011237.9872244
S         -2.49326       -0.63013       -0.07524
O         -2.38847        0.36411       -1.16805
O         -2.29454       -2.01904       -0.54705
O         -1.71077       -0.29443        1.11387
O         -4.03375       -0.54745        0.43399
H         -4.61083       -0.76643       -0.31022
S          2.46875       -0.60615       -0.19309
O          2.13921        0.42804       -1.20850
O          2.25893       -1.99665       -0.68416
O          1.77202       -0.37514        1.09902
C          4.21667       -0.43993        0.11053
H          4.39718        0.56862        0.48322
H          4.50880       -1.18514        0.85033
H          4.74001       -0.60401       -0.83146
N          0.04261       -2.64920        0.75711
H         -0.84850       -2.61795        0.21392
H          0.06847       -3.45049        1.37989
H          0.87676       -2.62522        0.12203
H          0.09452       -1.77288        1.29418
H          0.36503        3.85764       -0.78840
H         -1.38564        3.49845       -0.88341
H         -0.76482        3.75490        1.42838
H         -1.15208        2.05112        1.15854
H          1.04545        2.80948        2.37585
H          1.12121        1.52425        1.37327
H         -0.05106        2.10164       -2.33601
H          0.76617        1.41050       -1.08510
C         -0.41170        3.12673       -0.55420
C         -0.41659        2.83817        0.94191
N         -0.13032        1.89333       -1.34199
N          0.92699        2.52477        1.41162
H         -0.92475        1.21838       -1.24147
