36
1sa1msa1ma1tma_105.log	Energy: -1025809.0922411
S         -0.54939       -1.47438       -0.09615
O         -1.10845       -0.46560       -1.03740
O          0.12518       -0.77586        1.04272
O         -1.51768       -2.47561        0.32709
O          0.58825       -2.26067       -0.88709
H          1.31318       -1.63404       -1.12070
S          3.10202        0.32651       -0.00462
O          2.81048        1.74914        0.01425
O          2.62683       -0.44771       -1.15935
O          2.61749       -0.37448        1.32195
H          1.61832       -0.57866        1.26145
C          4.85196        0.07946        0.15886
H          5.31534        0.52922       -0.71967
H          5.18425        0.57831        1.06888
H          5.04795       -0.99133        0.19893
N         -0.71253        2.27537        0.48848
H         -0.28149        2.89467        1.16827
C         -0.38109        2.73699       -0.86486
H          0.69535        2.85400       -1.03661
H         -0.75492        2.00603       -1.58663
H         -0.87455        3.69644       -1.05585
H         -0.28467        1.36310        0.64000
N         -3.38968        0.39119        0.05264
C         -3.83293        1.74228       -0.36354
H         -3.08793        2.45319       -0.00137
H         -3.88521        1.77597       -1.45257
H         -4.81798        1.94262        0.06474
C         -4.26529       -0.69047       -0.46329
H         -4.33654       -0.59598       -1.54711
H         -3.80583       -1.64764       -0.21147
H         -5.25470       -0.59749       -0.00981
C         -3.22046        0.30036        1.52696
H         -2.83043       -0.68896        1.76856
H         -2.50631        1.06758        1.82525
H         -4.19114        0.45764        2.00339
H         -2.43935        0.20991       -0.37526
