36
1sa1msa2dma_146.log	Energy: -1025811.3937764
S          2.67390        0.20284        0.16009
O          3.89055        0.33950        0.92302
O          2.37320       -1.30422       -0.00840
O          1.48503        0.94823        0.52106
O          2.97327        0.69455       -1.35706
H          3.83478        0.34777       -1.62833
S         -1.06961       -1.87192       -0.08819
O         -2.19144       -1.13332       -0.69164
O         -0.75908       -1.44889        1.30084
O          0.15705       -1.84882       -0.95817
H          1.41178       -1.50988       -0.39111
C         -1.54126       -3.58846       -0.00455
H         -2.44368       -3.66313        0.60252
H         -1.72955       -3.93588       -1.02049
H         -0.72142       -4.14504        0.44963
N         -1.29231        1.26371        1.37900
C         -2.73102        1.05811        1.64826
C         -0.63253        2.18433        2.32475
H         -0.83631        0.32803        1.39303
H         -3.25050        2.01525        1.56694
H         -3.11118        0.34976        0.91154
H         -2.85726        0.65001        2.65248
H         -1.10966        3.16458        2.25910
H         -0.73594        1.79430        3.33898
H          0.42102        2.25585        2.06030
H         -1.19617        1.63690        0.38270
N         -1.33167        2.26378       -1.24457
C         -2.70588        2.02326       -1.69564
C         -0.35226        1.57024       -2.09172
H         -1.14145        3.26121       -1.28053
H         -2.92058        0.95661       -1.59016
H         -3.40514        2.59073       -1.07408
H         -2.85936        2.30865       -2.74668
H         -0.47757        0.49207       -1.97042
H         -0.48079        1.82129       -3.15492
H          0.65739        1.83254       -1.77546
