40
1sa1msa2eda_300.log	Energy: -1095268.5170711
S          0.39380       -1.70675        0.04959
O         -0.76794       -2.58682        0.29729
O          0.32458       -0.98414       -1.22699
O          0.37574       -0.59699        1.22595
O          1.70636       -2.35926        0.25552
H         -0.54841       -0.27148        1.32957
H          2.70897       -1.53018       -0.70272
S         -3.10500       -0.08701       -0.00648
O         -2.88069        0.79837       -1.13401
O         -2.26812        0.11565        1.18629
O         -3.03194       -1.59954       -0.43663
H         -2.13865       -2.02071       -0.18200
C         -4.80764        0.01209        0.48465
H         -4.99359        1.04420        0.78282
H         -5.42264       -0.25728       -0.37400
H         -4.96822       -0.67289        1.31620
H          3.91084        1.13488       -1.32735
H          2.23591        0.87837       -0.79587
H          3.76121        1.42930        1.15556
H          3.08031       -0.18897        1.30691
H          5.83728        0.46873        0.62408
H          5.25935       -0.72003        1.58577
H          2.98293       -0.91300       -2.23802
H          4.28518       -1.21447       -1.20214
C          3.26319        0.50163       -0.71285
C          3.77149        0.42316        0.71993
N          3.32084       -0.87853       -1.27856
N          5.09352       -0.21313        0.72480
H         -1.02151        2.20225        0.92957
H         -0.66459        3.90311        1.16979
H         -1.18869        3.44161       -1.16164
H          0.46507        4.05589       -0.99239
H         -0.17480        1.20158       -1.31487
H          0.40706        2.18052       -2.46594
H          1.18145        1.63802        1.19036
H          1.72716        3.17948        1.08100
C         -0.27888        2.97916        0.72170
C         -0.18211        3.19071       -0.79157
N          0.95530        2.60414        1.40511
N          0.40141        2.02931       -1.46208
