27
1sa1msa1a1ma_117.log	Energy: -951829.2426412
S          0.90699        1.04789       -0.09967
O          0.35163        0.46984       -1.37199
O          0.78984        0.02526        0.97713
O          2.24215        1.60819       -0.25727
O         -0.02612        2.27095        0.29220
H         -0.96710        1.97406        0.27296
S         -2.79068       -0.28733        0.03947
O         -4.12710       -0.73335       -0.27895
O         -2.51669        1.15151        0.12522
O         -1.79140       -0.92215       -1.01881
H         -1.00077       -0.30878       -1.18811
C         -2.26903       -1.02822        1.57011
H         -2.91758       -0.63013        2.35153
H         -2.39576       -2.10750        1.48321
H         -1.22687       -0.74979        1.74083
N          1.65548       -1.99089       -0.72480
H          1.58794       -3.00103       -0.79851
H          2.70438       -1.59397       -0.65808
H          1.18921       -1.52630       -1.50959
H          1.17688       -1.61923        0.11465
N          3.98061       -0.75069       -0.35246
H          4.82632       -0.94101       -0.88126
C          4.23600       -0.82212        1.09695
H          5.02923       -0.14128        1.41974
H          3.31598       -0.54901        1.61935
H          4.51281       -1.84360        1.37199
H          3.67139        0.19970       -0.57736
