38
1sa1msa1dma1eda_05.log	Energy: -1060567.0267439
S         -0.04370        2.18454       -0.71034
O          0.54719        3.50297       -0.81361
O          0.94909        1.23956       -1.58128
O          0.00368        1.58416        0.66421
O         -1.40008        2.02162       -1.28370
H         -2.11991        0.58492       -0.81000
S          0.80180       -2.25000       -0.37192
O         -0.00693       -2.45663        0.83927
O          2.18507       -1.76796       -0.12032
O          0.08955       -1.37537       -1.36988
H          0.63277        0.30417       -1.57461
C          0.99287       -3.82783       -1.17975
H          1.54550       -4.48351       -0.50671
H          0.00058       -4.23189       -1.38092
H          1.54306       -3.67276       -2.10773
N          2.46095        0.62944        1.13627
C          3.45196        1.56713        0.56818
C          2.66862        0.28508        2.55506
H          1.49762        1.04356        1.01410
H          4.44952        1.13166        0.64899
H          3.19375        1.74050       -0.47658
H          3.40568        2.51105        1.11326
H          3.65255       -0.17041        2.67979
H          2.59658        1.18948        3.16147
H          1.89836       -0.42719        2.85228
H          2.43459       -0.25651        0.58213
H         -2.42275       -1.41032        1.36596
H         -1.63953        0.18245        1.42778
H         -3.94100        0.28533        2.44592
H         -3.80032        1.31244        1.01621
H         -5.16350       -1.27655        1.12759
H         -5.71334        0.14791        0.54117
H         -1.51743       -0.95549       -0.76631
H         -3.20505       -0.71883       -0.86750
C         -2.48139       -0.37631        1.01849
C         -3.81669        0.27160        1.35545
N         -2.32924       -0.38385       -0.45727
N         -4.88746       -0.42951        0.64211
