40
1sa1msa2eda_194.log	Energy: -1095281.6814542
S         -0.13659       -1.75736       -0.61403
O          0.50333       -0.53014       -1.16364
O         -1.52939       -1.88203       -1.11246
O          0.68698       -2.95225       -0.70827
O         -0.26136       -1.50143        0.97921
H          3.63719       -0.60187       -0.89178
H         -0.87919       -0.74845        1.12332
S         -3.27169        0.58953        0.25696
O         -4.07630        1.78961        0.29360
O         -2.05308        0.55298        1.08353
O         -2.89461        0.30782       -1.24679
H         -2.30779       -0.51767       -1.30746
C         -4.24627       -0.83141        0.70252
H         -4.50167       -0.73199        1.75789
H         -5.14278       -0.83458        0.08264
H         -3.64179       -1.72331        0.52588
H          2.01691       -1.89887        1.49404
H          3.56385       -1.93185        2.33434
H          2.60582        0.41905        1.64460
H          4.32347        0.09023        1.27130
H          2.04325       -0.24060       -0.61700
H          3.13124        1.03195       -0.63633
H          4.32162       -3.19085        0.61765
H          2.89373       -3.02070       -0.18343
C          3.08629       -1.70631        1.37587
C          3.29079       -0.21524        1.07802
N          3.64124       -2.51873        0.28997
N          3.02566        0.02423       -0.35973
H          0.41300        3.61745       -0.75993
H          0.62349        4.03794        0.93353
H          2.57895        4.69879       -0.27886
H          2.99243        3.39991        0.85925
H          2.44756        2.87755       -1.97876
H          3.94141        3.12141       -1.38711
H         -0.14084        1.93340        1.13443
H          0.54047        1.36237       -0.19832
C          0.96715        3.34919        0.15539
C          2.45001        3.62848       -0.06423
N          0.71571        1.97975        0.59135
N          3.01447        2.78778       -1.13781
