30
1sa1msa1a1dma_49.log	Energy: -976495.4805815
S         -1.68791       -1.27452       -0.04051
O         -2.22846       -0.76492       -1.29493
O         -0.55888       -2.24199       -0.18353
O         -1.39568       -0.24578        0.97011
O         -2.90703       -2.17902        0.54820
H         -2.57861       -2.66053        1.31924
S          2.31500       -0.35294        0.00047
O          2.90250        0.53138        0.99457
O          1.35358        0.24252       -0.93876
O          1.67041       -1.58354        0.70676
H          0.72727       -1.83455        0.32524
C          3.61828       -1.09164       -0.95605
H          4.14722       -0.28776       -1.46884
H          4.28386       -1.61661       -0.27107
H          3.16876       -1.78085       -1.67085
N         -3.06256        1.99351       -0.47141
H         -2.98744        1.09724       -0.96167
H         -3.63850        2.61750       -1.02650
H         -3.55970        1.79865        0.39282
N         -0.32160        2.24106        0.06192
C          0.28771        3.25628       -0.81685
C         -0.02484        2.43026        1.49871
H         -1.37036        2.21059       -0.09797
H          1.36996        3.24412       -0.68148
H          0.04933        3.01300       -1.85241
H         -0.11240        4.24001       -0.56473
H          1.05120        2.33218        1.65456
H         -0.36949        3.41906        1.80749
H         -0.54578        1.64992        2.05126
H          0.04191        1.31690       -0.22204
