38
1sa1msa1dma1eda_41.log	Energy: -1060563.6781588
S          2.03484       -1.44693       -0.28267
O          2.24473       -0.38560       -1.29277
O          1.73124       -0.95205        1.05700
O          1.11952       -2.50875       -0.76254
O          3.48284       -2.17048       -0.11148
H          3.74304       -2.52479       -0.97245
S         -2.49555        1.08983       -0.22195
O         -1.75611        1.95289       -1.18536
O         -1.82574        0.98834        1.08970
O         -2.82745       -0.25005       -0.79151
C         -4.06653        1.89823        0.02725
H         -3.87953        2.88096        0.46049
H         -4.55885        1.99133       -0.94076
H         -4.66135        1.28594        0.70525
N         -1.41625       -2.30436        0.26438
C         -2.16560       -3.51183       -0.13267
C         -1.27912       -2.12580        1.72693
H         -0.46164       -2.34683       -0.15682
H         -3.17556       -3.45623        0.27654
H         -2.21383       -3.55272       -1.22078
H         -1.65519       -4.39769        0.24856
H         -2.27328       -2.05516        2.17076
H         -0.73206       -2.97478        2.13951
H         -0.73073       -1.20308        1.90660
H         -1.90462       -1.46548       -0.14124
H          0.52786        3.03616        1.02541
H          0.78518        1.29299        1.22935
H          2.78330        2.57970        2.03613
H          3.17436        1.53133        0.67182
H          2.88125        4.44277        0.56952
H          4.06606        3.50395       -0.05446
H         -0.08971        1.98712       -0.98245
H          1.41976        2.75241       -1.22592
C          1.14021        2.18519        0.71586
C          2.62161        2.42953        0.96145
N          0.93147        1.99292       -0.74231
N          3.07119        3.54925        0.12855
H          1.36651        1.09459       -1.04280
