33
1sa1msa1ma1dma_148.log	Energy: -1001151.1861393
S          0.28884        0.43198       -0.80200
O         -0.25594       -0.93923       -0.93231
O          1.63371        0.59714       -1.35848
O         -0.63460        1.39614       -1.66682
O          0.20113        0.90629        0.61414
H         -1.57791        1.22610       -1.42556
H          1.74073        1.10203        1.23415
S         -3.46445       -0.25754        0.24357
O         -4.84422       -0.66093        0.38538
O         -3.11591        0.72248       -0.79330
O         -2.60104       -1.56503        0.02708
H         -1.69865       -1.34498       -0.36246
C         -2.86204        0.37213        1.79502
H         -3.43105        1.27659        2.01433
H         -3.03525       -0.38776        2.55700
H         -1.79948        0.59779        1.67697
N          2.77652        1.13818        1.41610
H          2.94300        1.15390        2.41918
C          3.36306        2.31404        0.73382
H          4.44375        2.32368        0.88192
H          3.12553        2.22244       -0.32623
H          2.92456        3.23067        1.12872
H          3.17261        0.21907        0.97623
N          3.55429       -1.08888        0.05888
C          2.80688       -2.26177        0.52032
C          4.96763       -1.36851       -0.18188
H          3.11138       -0.74758       -0.79608
H          3.16518       -2.55878        1.51156
H          1.74420       -2.01497        0.58217
H          2.91851       -3.11755       -0.15875
H          5.45494       -1.63916        0.76030
H          5.11746       -2.19265       -0.89315
H          5.45630       -0.47518       -0.57949
