38
1sa1msa1dma1eda_379.log	Energy: -1060529.9488283
S         -0.83062        0.73714        0.12614
O          0.60895        0.96974        0.37719
O         -1.60141        1.90814       -0.26539
O         -0.91841       -0.24299       -1.14633
O         -1.45856       -0.01677        1.25593
H         -0.27932       -0.98712       -1.02431
H         -2.97115        0.18644        1.30442
S          2.23868       -1.99725       -0.06319
O          3.28241       -1.72738       -1.03090
O          0.87006       -2.19279       -0.56796
O          2.21242       -0.91366        1.08239
H          1.58463       -0.15124        0.84869
C          2.67852       -3.42371        0.89777
H          2.74358       -4.26196        0.20353
H          3.64573       -3.23416        1.36285
H          1.90488       -3.59157        1.64591
N          2.82951        2.92749       -0.62713
C          3.07098        3.89179        0.42907
C          3.80465        1.85084       -0.62919
H          1.90388        2.52837       -0.50921
H          4.02183        4.40697        0.24697
H          2.27765        4.64453        0.43254
H          3.12549        3.43940        1.43747
H          4.79060        2.24864       -0.89786
H          3.90374        1.34117        0.34694
H          3.53058        1.09921       -1.37326
H         -5.58714        1.17126        0.17565
H         -3.93350        1.77464       -0.18414
H         -4.81238        0.21623       -1.97929
H         -3.31980       -0.34292       -1.22757
H         -5.97649       -1.48089       -0.84345
H         -4.52558       -2.22840       -0.95484
H         -4.31508        0.83912        2.12937
H         -4.45871       -0.64796        1.35736
C         -4.53796        0.89463        0.03733
C         -4.38434       -0.16973       -1.04738
N         -4.04951        0.29600        1.31175
N         -4.99961       -1.41567       -0.58034
