33
1sa1msa1ma1dma_113.log	Energy: -1001152.8778170
S         -1.52653       -1.57564        0.31214
O         -0.45501       -0.81984       -0.43526
O         -1.04333       -2.82338        0.87654
O         -2.29112       -0.66460        1.16287
O         -2.60343       -1.97394       -0.85283
H         -2.31751       -2.80980       -1.24460
S          2.74995       -0.04316       -0.26218
O          2.19228        0.51804        0.96950
O          2.78365        0.83404       -1.42423
O          2.02886       -1.40359       -0.60156
H          1.02104       -1.28824       -0.53443
C          4.38129       -0.66697        0.05603
H          5.00485        0.19116        0.30863
H          4.32705       -1.36908        0.88721
H          4.74399       -1.15304       -0.84928
N         -3.16915        1.74130       -0.34970
H         -3.39315        0.90226        0.18578
C         -3.03760        1.40210       -1.77360
H         -3.94728        0.96932       -2.20471
H         -2.77452        2.30082       -2.33853
H         -2.23191        0.67253       -1.88865
H         -3.91479        2.41364       -0.20494
N         -0.54531        1.83090        0.57490
C          0.25792        2.84446       -0.13780
C         -0.46293        1.90789        2.04875
H         -1.56316        1.90920        0.27452
H          1.30127        2.75168        0.16124
H          0.17742        2.66476       -1.21011
H         -0.12828        3.83645        0.10481
H          0.57269        1.75348        2.35081
H         -0.81678        2.88863        2.37339
H         -1.09650        1.12107        2.45887
H         -0.26513        0.88158        0.27371
