40
1sa1msa2eda_139.log	Energy: -1095289.6843021
S          0.67989       -1.67835        0.32220
O         -0.09531       -0.87913        1.28875
O          0.98686       -0.68168       -0.92300
O          2.03923       -2.01304        0.78486
O         -0.09765       -2.80311       -0.23642
H          2.60437       -0.26960        0.87153
H         -1.62420       -2.02764       -0.65393
S         -0.74602        2.25968       -0.11446
O         -1.31942        3.47531       -0.67636
O          0.70902        2.33488        0.19784
O         -1.02885        1.03301       -0.95815
H          0.25987       -0.00389       -0.99959
C         -1.54876        1.95761        1.45436
H         -1.33218        2.80968        2.09976
H         -2.62452        1.88937        1.28437
H         -1.14475        1.03273        1.86800
H         -3.45551       -2.37650        0.77366
H         -2.57695       -0.94490        1.33858
H         -5.07130       -0.50889        1.21825
H         -4.18160        0.52526        0.09607
H         -5.75134       -1.82448       -0.64347
H         -5.74259       -0.33170       -1.31439
H         -3.03710       -1.52282       -1.48874
H         -1.97263       -0.38858       -0.83642
C         -3.20793       -1.33760        0.54047
C         -4.46643       -0.51165        0.30241
N         -2.40438       -1.33263       -0.70524
N         -5.15986       -1.03383       -0.87527
H          5.42638        0.20482        0.57707
H          5.60673        0.57752       -1.12430
H          3.94231        2.11088       -0.29877
H          3.05951        0.90103       -1.25006
H          3.21612        1.05435        1.67817
H          1.87768        1.25250        0.67367
H          4.05495       -1.71200       -0.08969
H          4.30068       -1.33855       -1.65478
C          4.91290        0.15070       -0.39231
C          3.67565        1.05282       -0.36220
N          4.69477       -1.24317       -0.72516
N          2.79525        0.75090        0.80204
