32
1sa1msa1a1eda_207.log	Energy: -1011228.2119509
S          2.02957        0.33249       -0.53605
O          1.00318       -0.35469       -1.40082
O          3.40001       -0.04392       -0.84923
O          1.73641        1.78420       -0.52947
O          1.70351       -0.14538        0.94811
H          0.13951        1.93641       -0.83775
H          2.29956       -0.93603        1.19351
S         -1.85639       -1.38096       -0.05484
O         -2.31114       -0.29631       -0.94793
O         -1.66884       -1.01343        1.34011
O         -0.59383       -2.06609       -0.65566
H          0.13947       -1.35477       -0.94869
C         -3.02543       -2.71067       -0.16953
H         -3.14578       -2.97634       -1.21902
H         -2.64167       -3.54974        0.41027
H         -3.96227       -2.34681        0.25308
N          3.44136       -2.10706        1.36684
H          3.13183       -3.06018        1.20982
H          3.97391       -2.08081        2.22960
H          4.05140       -1.83362        0.59861
H         -2.45233        1.71761        1.20008
H         -2.09586        3.30869        1.85999
H         -2.43908        3.41894       -0.56992
H         -0.80352        3.94700       -0.11755
H         -1.37658        1.18732       -1.04815
H         -0.89151        2.42295       -2.04788
H         -0.38974        0.94120        1.68829
H          0.34983        2.41769        1.68286
C         -1.68379        2.49557        1.24702
C         -1.48289        3.09061       -0.15324
N         -0.51551        1.92903        1.87751
N         -0.87725        2.09913       -1.08284
