40
1sa1msa2eda_150.log	Energy: -1095288.9701336
S          0.67661       -1.18465       -1.08989
O          1.91372       -1.84590       -1.48758
O         -0.37584       -2.33777       -0.88106
O          0.81775       -0.49646        0.25472
O          0.12966       -0.19933       -2.04745
H          1.93330       -1.01156        1.13871
H         -0.64026        1.09913       -1.23091
S         -3.22561       -0.31281        0.52147
O         -3.64373        0.46222       -0.67205
O         -2.34735        0.49375        1.41821
O         -2.64160       -1.63946        0.18983
H         -1.24486       -1.99720       -0.49790
C         -4.70196       -0.67977        1.45049
H         -5.18276        0.26304        1.71153
H         -5.35279       -1.28480        0.81915
H         -4.41265       -1.22948        2.34615
H          0.38675        2.99845        1.18492
H          1.01419        4.25046        0.12150
H         -1.36693        3.85733       -0.32912
H         -0.40127        3.41983       -1.75213
H         -1.36219        1.41959        0.25659
H         -2.15899        1.74431       -1.10311
H          1.42907        1.34637       -0.12042
H          1.95629        2.43407       -1.22981
C          0.64893        3.21815        0.14395
C         -0.61950        3.15772       -0.71279
N          1.72287        2.31658       -0.24793
N         -1.21064        1.80242       -0.70498
H          4.84937       -1.67578        1.47149
H          3.78376       -2.10687        0.08934
H          5.23350       -0.00068       -0.27395
H          3.50580        0.16753       -0.56017
H          5.02983        1.45168        1.50386
H          3.52092        1.80776        0.90769
H          2.65694       -2.01722        2.33316
H          2.99062       -0.36042        2.28761
C          4.00596       -1.35902        0.85152
C          4.25648        0.01534        0.21957
N          2.81690       -1.21271        1.73297
N          4.13601        1.06127        1.23523
