32
1sa1msa1a1eda_333.log	Energy: -1011206.0066498
S         -1.85333        0.39222        0.19613
O         -2.74229        1.52714        0.16758
O         -0.69796        0.41894        1.09454
O         -2.63745       -0.91687        0.52288
O         -1.33765        0.18606       -1.28095
H         -3.61356       -0.84327        0.13597
H         -0.60425       -0.48549       -1.29421
S          1.64908       -1.86691       -0.12403
O          2.91841       -1.24526       -0.42874
O          0.53762       -1.68782       -1.07057
O          1.14904       -1.45347        1.32325
H          0.44553       -0.74659        1.27337
C          1.88625       -3.60677        0.12517
H          2.26887       -4.01045       -0.81278
H          2.61674       -3.73545        0.92381
H          0.92863       -4.05568        0.38522
N         -5.01481       -0.53085       -0.42812
H         -5.03260        0.48629       -0.46943
H         -5.78329       -0.83796        0.15988
H         -5.17075       -0.88660       -1.36631
H          1.00108        1.56418       -0.91862
H          2.71033        1.41241       -1.28597
H          2.40364        1.13726        1.10788
H          3.26257        2.65417        0.81884
H          0.41601        2.42656        1.46264
H          1.57349        3.20911        2.31234
H          1.32975        3.96893       -0.95856
H          2.83761        3.75410       -1.53729
C          1.97364        2.05791       -0.79791
C          2.29411        2.15309        0.69616
N          1.91313        3.33510       -1.49901
N          1.27830        2.95692        1.37644
