30
1sa1msa1a1dma_19.log	Energy: -976504.6365094
S         -2.00625        0.74920       -0.25205
O         -2.02491        2.22953       -0.26358
O         -3.29133        0.06997       -0.30490
O         -1.25040        0.26262       -1.58197
O         -1.12513        0.27738        0.87268
H         -0.27578        0.47093       -1.51441
H         -0.82437       -1.31247        0.59401
S          2.12843        0.17493       -0.15409
O          1.34217        0.66616       -1.31897
O          1.74124       -1.17759        0.29348
O          2.16625        1.18151        0.95019
H          0.89206        2.12989        1.15208
C          3.81349        0.05972       -0.72978
H          3.84498       -0.67097       -1.53817
H          4.12186        1.04221       -1.08698
H          4.43553       -0.26200        0.10575
N          0.05613        2.73481        1.41521
H         -0.36633        2.31012        2.23832
H         -0.67870        2.69293        0.66353
H          0.34116        3.69018        1.60875
N         -1.01764       -2.34683        0.46488
C         -0.35420       -3.09258        1.55796
C         -0.62276       -2.78043       -0.89909
H         -2.03379       -2.40554        0.55456
H          0.71655       -2.90838        1.47513
H         -0.72070       -2.71149        2.51137
H         -0.57818       -4.15663        1.46347
H          0.44829       -2.60803       -0.99807
H         -0.86849       -3.83674       -1.02406
H         -1.16074       -2.16277       -1.61758
