36
1sa1msa1ma1tma_19.log	Energy: -1025824.3133743
S          1.06606        1.80601       -0.12338
O          0.06661        1.21127       -1.24667
O          2.38367        1.94146       -0.73819
O          0.41094        3.05762        0.29995
O          1.03853        0.78190        0.96783
H         -1.09983        2.48485        0.91726
H          1.77573       -0.52688        0.48121
S         -1.94560       -1.35299       -0.14083
O         -2.95722       -0.85400       -1.07709
O         -1.98601       -0.68255        1.19228
O         -0.55635       -1.34593       -0.71056
H         -0.11921        0.24651       -1.08387
C         -2.30066       -3.07280        0.18365
H         -3.30472       -3.13461        0.60376
H         -2.24740       -3.61300       -0.76187
H         -1.56821       -3.45459        0.89570
N         -2.03335        2.03190        1.06156
H         -1.90047        0.99011        1.16504
C         -2.90322        2.30403       -0.11071
H         -3.84134        1.76281        0.00311
H         -3.07319        3.37751       -0.19173
H         -2.38506        1.93899       -0.99604
H         -2.44079        2.38181        1.92542
N          2.47402       -1.28619        0.20693
C          3.76889       -0.81960        0.75919
H          3.98650        0.15691        0.32443
H          3.67166       -0.71924        1.84047
H          4.55067       -1.54168        0.51196
C          2.01191       -2.55462        0.81289
H          1.93200       -2.41921        1.89213
H          1.02960       -2.77808        0.39659
H          2.72710       -3.34850        0.58346
C          2.51268       -1.36138       -1.27712
H          1.52713       -1.66386       -1.63068
H          2.75765       -0.37022       -1.66203
H          3.27130       -2.08995       -1.57405
