33
1sa1msa1a1tma_10.log	Energy: -1001162.7440668
S          2.81016       -0.34999        0.07150
O          3.06590        1.08880       -0.03005
O          1.99595       -0.79126        1.20922
O          2.32271       -0.94191       -1.20977
O          4.25944       -1.04479        0.35232
H          4.91246       -0.58839       -0.19444
S         -2.62346       -0.67959        0.02174
O         -2.85726        0.75789       -0.31000
O         -1.66735       -0.84685        1.13903
O         -2.23702       -1.48969       -1.16671
C         -4.20416       -1.29966        0.56328
H         -4.50734       -0.73460        1.44472
H         -4.92013       -1.16568       -0.24773
H         -4.08851       -2.35661        0.80370
N          0.23585       -2.44259       -0.38640
H          0.19878       -2.03885        0.55751
H         -0.67372       -2.21180       -0.84435
H          1.05025       -1.97072       -0.86091
H          0.38259       -3.44588       -0.33191
N         -0.60232        2.18855       -0.05518
C         -0.89258        3.63112       -0.20942
H         -1.45104        3.78456       -1.13336
H         -1.48968        3.96649        0.63908
H          0.04915        4.18280       -0.24456
C          0.09788        1.89663        1.22616
H         -0.50035        2.30116        2.04329
H          0.19324        0.81734        1.34036
H          1.09082        2.34786        1.19833
C          0.14019        1.65394       -1.22736
H          0.24102        0.57585       -1.11601
H         -0.43147        1.87255       -2.12957
H          1.13720        2.09445       -1.26143
H         -1.52235        1.67114       -0.05170
