32
1sa1msa1a1eda_198.log	Energy: -1011227.4288567
S          1.48219       -0.73372       -0.09689
O          0.27909       -0.45443       -0.93973
O          2.74150       -0.44559       -0.78991
O          1.35391       -0.02281        1.20510
O          1.41988       -2.28367        0.19936
H          0.39723        1.29171        0.98092
H          2.36887       -2.65749        0.24895
S         -2.94370       -0.41838        0.11500
O         -2.62153        0.99588       -0.16391
O         -2.91544       -0.82142        1.50895
O         -2.05789       -1.34213       -0.78449
H         -1.06852       -1.03717       -0.81193
C         -4.54036       -0.76351       -0.57811
H         -5.26379       -0.17021       -0.01844
H         -4.53199       -0.48441       -1.63094
H         -4.73659       -1.82820       -0.45266
N          3.96853       -3.02192        0.16331
H          4.21675       -3.83639       -0.38763
H          4.46346       -3.06934        1.04745
H          4.27287       -2.18651       -0.33346
H          1.51880        4.22464        0.59752
H          1.91639        4.05766       -1.09943
H         -0.43170        3.53492       -0.81583
H          0.41532        2.04036       -1.27098
H         -0.34701        2.72410        1.49055
H         -1.15677        1.67887        0.46300
H          2.63036        2.12939        1.01202
H          2.94960        1.92300       -0.56280
C          1.65629        3.48438       -0.20272
C          0.31547        2.80327       -0.49553
N          2.77523        2.63322        0.14352
N         -0.23144        2.09545        0.69733
