35
1sa1msa1ma1eda_266.log	Energy: -1035879.1729974
S         -2.60531       -0.07435       -0.44394
O         -2.94003        0.41599        0.91517
O         -2.33831        0.98796       -1.41118
O         -1.58501       -1.14500       -0.37343
O         -3.91190       -0.86947       -0.97830
H         -4.52841       -0.21777       -1.33875
S          1.69008       -1.78374       -0.12393
O          1.56598       -3.22879       -0.11005
O          1.39977       -1.08270        1.14295
O          0.82105       -1.13940       -1.27590
H         -0.15830       -1.13233       -1.02431
C          3.29874       -1.29422       -0.67183
H          4.00946       -1.75882        0.01316
H          3.43750       -1.67545       -1.68358
H          3.35162       -0.20024       -0.61353
N         -0.81674       -0.20397        2.46965
H         -0.13801       -0.70140        1.85749
H         -1.69836       -0.04070        1.91939
C         -0.22924        1.09559        2.87691
H         -0.94004        1.63273        3.50495
H          0.69898        0.91474        3.41939
H         -0.02943        1.65938        1.95949
H         -1.02819       -0.80326        3.26424
H          2.36653        3.86234       -0.21905
H          3.17832        2.96657       -1.51036
H          0.86128        3.14969       -2.10157
H          1.15823        1.46132       -1.66029
H         -0.14024        3.45675        0.03468
H         -0.78922        2.09919       -0.58535
H          3.69103        2.17952        0.80999
H          2.16960        1.56555        0.84843
C          2.45697        2.86889       -0.69124
C          1.10026        2.47949       -1.26282
N          2.93078        1.83874        0.23198
N          0.07435        2.49442       -0.21431
