32
1sa1msa1a1eda_325.log	Energy: -1011209.5851480
S          1.77428       -1.33604       -0.01129
O          0.81850       -2.04345        0.83648
O          3.10980       -1.85607       -0.17724
O          1.15696       -1.19914       -1.45884
O          1.82987        0.13378        0.52097
H          0.17721       -1.02565       -1.39878
H          2.75424        0.58618        0.28147
S         -2.30603       -0.95107       -0.02505
O         -2.99513       -2.22076       -0.11251
O         -1.40738       -0.58699       -1.13730
O         -1.49211       -0.83246        1.33661
H         -0.63716       -1.33957        1.26688
C         -3.45235        0.37328        0.22089
H         -4.17964        0.30323       -0.58923
H         -3.93939        0.22016        1.18392
H         -2.89863        1.31683        0.16584
N          4.14937        1.09743       -0.04172
H          4.68302        0.24832       -0.21673
H          4.58440        1.59411        0.72977
H          4.20518        1.68263       -0.86947
H          0.16913        4.15210        0.58069
H          1.48145        2.98984        0.50215
H          0.46759        3.09984       -1.68106
H          0.09360        1.52012       -0.97034
H         -1.77333        3.76979       -1.11966
H         -1.88921        2.31599       -1.85460
H         -1.16574        2.43105        1.61762
H          0.10412        1.40647        1.59971
C          0.38884        3.08069        0.47671
C         -0.10475        2.59207       -0.88646
N         -0.15213        2.38877        1.63511
N         -1.55199        2.78334       -1.01897
