36
1sa1msa2dma_198.log	Energy: -1025800.5670104
S          1.23656       -0.69527       -0.32640
O          1.81653        0.64785       -0.61191
O          0.13607       -1.06904       -1.22483
O          2.31089       -1.71068       -0.23266
O          0.64428       -0.60770        1.15464
H          3.82186       -0.91225       -0.03644
H         -0.34552       -0.55358        1.14068
S         -3.06100       -0.51594        0.20718
O         -3.88182        0.67226        0.32332
O         -2.02472       -0.76904        1.21583
O         -2.43469       -0.61210       -1.23854
H         -1.43270       -0.65328       -1.20612
C         -4.13486       -1.93393        0.19072
H         -4.64665       -1.96065        1.15319
H         -4.85093       -1.80949       -0.62154
H         -3.52741       -2.82689        0.04698
N          4.31141        0.00779        0.08652
C          5.52715        0.10632       -0.74066
C          4.50232        0.25620        1.53150
H          3.53973        0.61900       -0.26669
H          6.25443       -0.63409       -0.40433
H          5.26115       -0.08581       -1.78001
H          5.95175        1.10705       -0.64684
H          5.20661       -0.47394        1.93267
H          4.88673        1.26639        1.67913
H          3.53558        0.14842        2.02454
N         -0.94273        1.94241       -0.18065
C         -1.15122        2.56121        1.11639
C         -1.64911        2.62282       -1.25248
H          0.04945        1.89917       -0.39184
H         -2.20578        2.46518        1.39448
H         -0.55554        2.03859        1.87062
H         -0.88641        3.63445        1.14135
H         -2.72700        2.53498       -1.08442
H         -1.39862        3.69644       -1.33240
H         -1.41855        2.14016       -2.20631
