36
1sa1msa2dma_175.log	Energy: -1025801.4403467
S         -0.16200       -0.40461       -0.64628
O          0.61997        0.79912       -0.99640
O         -1.35053       -0.60469       -1.49776
O          0.75333       -1.67491       -0.98356
O         -0.48719       -0.47919        0.79905
H          1.65100       -1.52994       -0.59811
H         -2.18515       -1.14919        1.00236
S          3.84366        0.26671        0.14736
O          4.84955        0.45321       -0.87824
O          3.11032       -1.00753        0.17451
O          2.80992        1.45670        0.15675
H          1.93560        1.20603       -0.29937
C          4.58877        0.49929        1.74305
H          5.35358       -0.27035        1.85094
H          5.03791        1.49203        1.76659
H          3.81685        0.39540        2.50456
N         -2.92106       -1.61777        0.43796
C         -4.28413       -1.26142        0.88353
C         -2.61988       -3.06595        0.38969
H         -2.68985       -1.21012       -0.49316
H         -4.44641       -1.66391        1.88512
H         -4.35813       -0.16702        0.88611
H         -5.00719       -1.69771        0.19200
H         -2.73544       -3.49174        1.38724
H         -3.30764       -3.55008       -0.30467
H         -1.59313       -3.19195        0.04445
N         -3.89492        1.99991        0.60568
C         -4.93991        2.47699       -0.29168
C         -2.55405        2.28089        0.09345
H         -4.00391        2.45053        1.50863
H         -4.88712        1.92099       -1.23383
H         -5.92391        2.30038        0.15277
H         -4.85294        3.54913       -0.53341
H         -2.40153        1.74001       -0.84486
H         -2.38285        3.35168       -0.10139
H         -1.80241        1.92658        0.80229
