23
1sa1msa1ma_49.log	Energy: -916326.6117969
S          1.94928       -0.81614        0.02756
O          2.55104       -2.11814       -0.16748
O          2.89353        0.29175        0.34402
O          1.35127       -0.30028       -1.41643
O          0.76633       -0.77185        0.92197
H          0.46246       -0.67770       -1.53290
H          0.27420        1.53293        0.91587
S         -2.10106       -0.11922       -0.04645
O         -1.62420        1.12679        0.53194
O         -1.52917       -0.60975       -1.29469
O         -3.68359        0.09561       -0.32866
H         -3.86555       -0.16788       -1.24265
C         -2.13541       -1.39481        1.18149
H         -1.08785       -1.59290        1.42311
H         -2.69117       -1.01764        2.03979
H         -2.61969       -2.26674        0.74243
N          1.08544        2.15144        0.76726
H          1.17273        2.77182        1.56835
C          0.92876        2.88871       -0.50918
H          1.77092        3.56876       -0.63430
H          0.93290        2.14808       -1.30856
H         -0.01263        3.43723       -0.50372
H          1.93253        1.49324        0.70475
