33
1sa1msa1ma1dma_182.log	Energy: -1001142.8042004
S          1.11438       -0.41302        0.56100
O         -0.02863       -0.07955        1.43426
O          2.19832       -1.17976        1.16928
O          0.55998       -1.36107       -0.60028
O          1.63144        0.82106       -0.11964
H         -0.33289       -1.04941       -0.90019
H          3.08135        0.59699       -0.48950
S         -3.04708       -0.65697       -0.25642
O         -4.01769       -1.67698       -0.58444
O         -1.89606       -0.45766       -1.15584
O         -2.49421       -0.96703        1.19608
H         -1.56102       -0.62713        1.31755
C         -3.85392        0.90887       -0.06373
H         -4.26650        1.17445       -1.03821
H         -4.65234        0.77656        0.66701
H         -3.10718        1.64196        0.27317
N         -1.22887        2.69127        0.59073
H         -1.07412        3.52282        1.15010
C         -0.85591        2.92498       -0.80355
H          0.19909        3.19394       -0.95097
H         -1.04757        2.01248       -1.37498
H         -1.48242        3.72047       -1.22008
H         -0.65325        1.95102        0.98549
N          4.11832        0.35539       -0.70457
C          4.15266       -0.97677       -1.36027
C          4.87767        0.41229        0.56855
H          4.46343        1.06561       -1.34854
H          3.73090       -1.69849       -0.66023
H          3.53411       -0.94193       -2.25710
H          5.18239       -1.23482       -1.61380
H          4.42220       -0.30556        1.25122
H          5.92621        0.17067        0.38542
H          4.78640        1.41523        0.98590
