30
1sa1msa2ma_82.log	Energy: -976493.6473565
S         -0.67025       -1.50188       -0.23417
O          0.36197       -2.50231       -0.01330
O         -2.04469       -1.93372       -0.44569
O         -0.77941       -0.59170        1.11040
O         -0.23589       -0.49837       -1.29244
H          0.11210       -0.21630        1.29380
H         -1.17495        0.88506       -1.21216
S          2.72325        0.51131        0.21598
O          1.61349        0.67863        1.17077
O          3.79191        1.48377        0.24056
O          2.12906        0.49135       -1.24758
H          1.22172        0.03325       -1.27812
C          3.37575       -1.12801        0.42183
H          3.80705       -1.17840        1.42232
H          2.55435       -1.84037        0.30997
H          4.14257       -1.27790       -0.33813
N         -3.59641        0.42408        0.63587
H         -3.34511       -0.51945        0.32915
C         -5.03799        0.65599        0.50274
H         -5.64543       -0.03272        1.10075
H         -5.27754        1.67921        0.80474
H         -5.32384        0.53711       -0.54538
H         -3.30671        0.47194        1.60864
N         -1.74131        1.71730       -0.91171
H         -2.15999        2.14691       -1.73332
C         -0.88063        2.66755       -0.17034
H         -1.48879        3.48010        0.22831
H         -0.39379        2.12854        0.64190
H         -0.11215        3.06507       -0.83367
H         -2.52764        1.30323       -0.28395
