35
1sa1msa1ma1eda_277.log	Energy: -1035873.6111865
S          0.53588        1.06952       -0.73774
O          1.46611        2.17357       -0.93949
O         -0.83521        1.26520       -1.24310
O          1.10810       -0.23898       -1.19867
O          0.43104        0.93821        0.86440
H          2.68822       -0.02216       -1.06499
H         -0.21621        0.22255        1.07232
S         -2.25609       -1.62285        0.06363
O         -3.38498       -2.40368        0.51197
O         -1.27751       -1.16242        1.05881
O         -2.82517       -0.36890       -0.71693
H         -2.09391        0.28685       -0.91831
C         -1.36421       -2.51038       -1.19368
H         -0.97573       -3.41708       -0.72801
H         -2.06468       -2.75652       -1.99146
H         -0.54778       -1.87547       -1.54558
N         -3.02335        2.90362        0.44202
H         -3.85654        2.47660        0.05172
C         -2.68983        2.28818        1.72226
H         -2.54515        1.19747        1.68931
H         -1.76927        2.73675        2.10612
H         -3.48352        2.49838        2.44582
H         -2.27381        2.75255       -0.22570
H          4.76287        0.92807        0.86262
H          3.00939        1.25723        0.91104
H          3.62449       -0.66079        2.42783
H          2.52226       -1.14124        1.13696
H          5.36972       -1.78126        1.30096
H          4.11778       -2.73754        0.86977
H          3.87790        1.11789       -1.36283
H          4.32990       -0.48607       -1.04783
C          3.77051        0.52316        0.64624
C          3.54417       -0.81111        1.34503
N          3.68456        0.27727       -0.82092
N          4.48516       -1.79604        0.80475
