28
1sa1msa1eda_32.log	Energy: -975731.7053417
S         -2.37502        0.27269        0.01271
O         -2.14324        1.30100       -1.01275
O         -2.11734       -1.11683       -0.47443
O         -1.73007        0.53302        1.29877
O         -3.97788        0.34077        0.21930
H         -4.23092       -0.35016        0.84679
S          1.27449       -1.74066        0.02934
O          1.79387       -1.10547        1.23150
O          1.23881       -0.89295       -1.17711
O         -0.11683       -2.39457        0.26600
H         -0.94038       -1.81115       -0.02672
C          2.24276       -3.18198       -0.33899
H          3.26834       -2.84951       -0.50093
H          2.18689       -3.85554        0.51608
H          1.83596       -3.64955       -1.23484
H          0.39849        3.06635        0.80519
H          0.51103        1.34665        1.21418
H          2.68021        2.53337        1.68609
H          2.86441        1.28035        0.46195
H          2.79433        4.16737       -0.03758
H          3.85428        3.05599       -0.59513
H         -0.48347        1.79821       -0.99832
H          1.04741        2.43355       -1.45833
C          0.90311        2.12768        0.56235
C          2.41578        2.25882        0.65746
N          0.54865        1.78556       -0.84149
N          2.88186        3.20836       -0.35701
H          0.85972        0.81721       -1.05694
