40
1sa1msa2eda_169.log	Energy: -1095282.3875530
S          0.45420       -1.71663       -0.01381
O         -0.91603       -2.20354        0.30044
O          1.43224       -2.75969       -0.28072
O          0.42030       -0.65413       -1.06243
O          0.89113       -0.97046        1.33579
H         -0.12558        0.83495       -0.82699
H          1.89311       -0.82002        1.31922
S         -3.46581        0.13691       -0.06137
O         -3.19178        1.18186       -1.06366
O         -2.96219        0.40040        1.28161
O         -2.99397       -1.24438       -0.58770
H         -2.07124       -1.60505       -0.19123
C         -5.22433       -0.10312       -0.01713
H         -5.55766       -0.38037       -1.01687
H         -5.44055       -0.89200        0.70267
H         -5.67195        0.84135        0.29294
H         -0.80136        3.23584        0.81265
H         -0.81698        1.54106        1.34752
H          1.31737        2.73251        2.01728
H          1.58234        1.33265        0.97877
H          1.94863        4.10841        0.22637
H          2.79502        2.75188       -0.19418
H         -1.47439        1.81836       -0.98925
H          0.09391        2.43698       -1.28983
C         -0.31183        2.26383        0.70477
C          1.18095        2.34728        0.99889
N         -0.48108        1.82566       -0.70309
N          1.86492        3.13148       -0.02929
H          5.29971       -1.04311        0.19985
H          3.85986       -2.06222       -0.03794
H          4.25275       -0.71907       -2.00887
H          2.72356       -0.26074       -1.25334
H          5.23532        1.24410       -0.96397
H          3.93319        1.68920       -1.82469
H          3.91916       -0.95398        2.13714
H          3.77827        0.49566        1.38697
C          4.20311       -1.03405        0.09948
C          3.80986       -0.23032       -1.13008
N          3.55674       -0.49425        1.30701
N          4.22074        1.17810       -0.99514
