40
1sa1msa2eda_07.log	Energy: -1095300.0408941
S          3.33031        0.17750       -0.51264
O          4.76928        0.32321       -0.43137
O          2.62599       -0.16428        0.74880
O          2.62431        1.23834       -1.26200
O          3.03286       -1.21363       -1.36631
H          3.48122       -1.14896       -2.21965
S         -2.60202       -0.72951       -0.85917
O         -3.09923       -0.43950        0.50694
O         -1.52573       -1.76595       -0.86186
O         -2.20189        0.49401       -1.60007
C         -3.95712       -1.44704       -1.76673
H         -4.76649       -0.71732       -1.79113
H         -3.60895       -1.67212       -2.77472
H         -4.26996       -2.35447       -1.25039
H          0.41348        3.13654        0.98773
H          0.18631        3.55948       -0.72185
H         -1.73181        4.28090        0.62860
H         -2.21915        3.08655       -0.57763
H         -2.91298        2.89955        1.94629
H         -2.60567        1.54800        1.08845
H          0.99595        1.39322       -0.67967
H         -0.05402        0.89116        0.55390
C         -0.18448        2.93641        0.09575
C         -1.65861        3.22312        0.35753
N          0.04124        1.51820       -0.28123
N         -2.18269        2.40393        1.44944
H         -0.67257        1.19687       -0.96327
H         -0.69505       -2.88606        1.79810
H          0.98162       -3.12324        2.34276
H         -0.20112       -1.43676        3.71539
H          1.22638       -0.76684        2.90341
H         -1.50592       -0.42735        1.82956
H         -0.66739        0.71658        2.63007
H         -0.06486       -1.79756       -0.07081
H          1.48087       -1.33109        0.54786
C          0.28617       -2.41303        1.89122
C          0.21394       -1.14864        2.73902
N          0.75456       -2.09126        0.51610
N         -0.55931       -0.11712        2.05834
H          1.17673       -2.89364        0.05356
