41
1sa1msa1tma1eda_180.log	Energy: -1085203.5688653
S          0.23811       -1.56451        0.67646
O         -0.04976       -0.50307       -0.38283
O          1.00154       -0.94457        1.76933
O         -0.96470       -2.28650        1.05371
O          1.16649       -2.62768       -0.05876
H          1.96382       -2.16757       -0.40955
S          3.33826        0.40402       -0.82059
O          4.26497        1.15037       -1.63964
O          3.20176       -1.04166       -1.02175
O          1.90145        1.06612       -0.98884
H          1.17075        0.38597       -0.81058
C          3.70467        0.68118        0.89763
H          4.68501        0.24147        1.08592
H          3.73048        1.75730        1.07066
H          2.93273        0.18347        1.48938
H         -5.31607       -0.52493       -2.03554
H         -4.04109        0.37639       -2.86571
H         -3.20860       -1.77267       -1.98964
H         -2.35552       -0.41485       -1.26757
H         -4.45811       -1.95925        0.05249
H         -2.88986       -1.79354        0.48416
H         -5.27922        1.79608       -1.34931
H         -4.83225        0.84886       -0.08868
C         -4.37439        0.02856       -1.88226
C         -3.32679       -0.91766       -1.30785
N         -4.54423        1.18840       -1.00300
N         -3.67877       -1.30739        0.05928
N         -1.09493        1.61531        0.94656
C          0.09280        2.16754        1.64657
H          0.55227        1.36176        2.22046
H          0.79957        2.52914        0.89851
H         -0.22792        2.98361        2.29773
C         -1.69566        2.59364        0.00388
H         -0.94863        2.84862       -0.74940
H         -2.58284        2.14755       -0.46085
H         -1.97814        3.48941        0.56291
C         -2.09420        1.06280        1.90030
H         -2.86211        0.52578        1.33636
H         -1.58345        0.36415        2.56439
H         -2.52758        1.88674        2.47175
H         -0.75212        0.79971        0.37902
