40
1sa1msa2eda_231.log	Energy: -1095278.3045811
S          0.61894        0.54748       -0.90767
O          1.88708        0.78134       -1.62938
O         -0.56981        0.48546       -1.76250
O          0.70657       -0.94989       -0.30214
O          0.45233        1.44959        0.25885
H          1.57067       -1.04719        0.16346
H         -1.17947        1.33022        0.76718
S          4.43365       -0.41332        0.43071
O          5.37582       -1.36508       -0.12180
O          3.13521       -0.91853        0.90130
O          4.19896        0.78390       -0.56143
H          3.26329        0.78805       -0.97064
C          5.20618        0.44127        1.78423
H          5.45087       -0.30664        2.53884
H          6.11115        0.91850        1.40852
H          4.50360        1.17777        2.17277
H         -2.72149        3.06528        0.16969
H         -2.51345        1.89296       -1.15037
H         -4.97269        2.45830       -0.66611
H         -4.59344        0.74137       -0.52961
H         -5.37350        2.47391        1.60733
H         -5.41117        0.82504        1.47270
H         -2.63483        1.22089        1.69137
H         -2.32191        0.12650        0.43500
C         -2.92760        2.04090       -0.15123
C         -4.41833        1.72056       -0.07518
N         -2.20731        1.12783        0.76677
N         -4.84931        1.65674        1.32191
H         -3.99598       -3.41678        0.64007
H         -5.43597       -2.91428       -0.24876
H         -3.45610       -2.80852       -1.66813
H         -4.16728       -1.20592       -1.45827
H         -1.79567       -2.16386       -0.00382
H         -1.81084       -1.05316       -1.18040
H         -5.45223       -1.88349        1.87015
H         -3.97660       -1.23487        1.65582
C         -4.50044       -2.54822        0.18526
C         -3.62839       -2.00511       -0.93849
N         -4.82397       -1.50807        1.16663
N         -2.37745       -1.44240       -0.42332
