23
1sa1msa1ma_10.log	Energy: -916336.7300169
S          2.27439       -0.46039       -0.11201
O          3.35946       -1.00178       -0.90533
O          0.96131       -0.31076       -0.79936
O          1.92985       -1.58032        1.02693
O          2.58747        0.78552        0.62886
H          2.72537       -2.11308        1.15852
H          1.25123        1.70146        0.78270
S         -2.22991       -0.27899       -0.04682
O         -2.52397        0.60854       -1.16047
O         -1.71645        0.36825        1.17450
O         -1.27432       -1.44828       -0.47173
H         -0.32358       -1.09841       -0.61406
C         -3.66640       -1.22386        0.38470
H         -4.42363       -0.51305        0.71614
H         -3.99970       -1.75731       -0.50513
H         -3.39898       -1.91375        1.18413
N          0.32851        2.22125        0.76346
H         -0.41628        1.53239        0.99403
C          0.09027        2.78948       -0.58770
H         -0.89381        3.25558       -0.61934
H          0.87091        3.51605       -0.81111
H          0.13081        1.96751       -1.30079
H          0.33639        2.94085        1.48274
