40
1sa1msa2eda_271.log	Energy: -1095274.8814353
S         -0.77361       -2.12443        0.16319
O         -0.18661       -1.37820       -0.99778
O         -0.25877       -3.46481        0.32753
O         -0.34853       -1.23448        1.46821
O         -2.24350       -1.96336        0.19927
H          0.59700       -0.98020        1.40599
H         -2.59187       -0.41126        0.86503
S          3.01311       -0.44394       -0.11858
O          3.91296       -1.51436        0.24858
O          2.03336        0.00033        0.90166
O          2.22199       -0.76741       -1.43721
H          1.27203       -1.12093       -1.24831
C          3.94250        0.97690       -0.63376
H          3.25505        1.81310       -0.77574
H          4.64782        1.19735        0.16835
H          4.47450        0.71577       -1.54864
H          0.57800        2.95418       -1.61784
H         -1.09370        3.31441       -1.14371
H          0.44616        4.68962        0.12588
H         -0.36997        3.56222        1.21774
H          2.13827        3.80986        1.42915
H          1.67947        2.25515        1.22624
H         -0.61157        0.89944       -1.27809
H          0.42388        1.02897       -0.06543
C         -0.15390        2.86356       -0.80410
C          0.36881        3.63323        0.40087
N         -0.41388        1.46287       -0.45359
N          1.70198        3.16782        0.77765
H         -3.15761        1.26379       -1.43058
H         -4.84176        1.71278       -1.15855
H         -3.58306        2.40658        0.77123
H         -4.61895        1.02966        1.24184
H         -1.68884        0.98593        0.57665
H         -2.40189        0.69244        2.09188
H         -4.98400       -0.46946       -1.88602
H         -3.79535       -1.02814       -0.90220
C         -4.05514        1.02466       -0.83445
C         -3.76852        1.33794        0.63020
N         -4.53816       -0.33675       -0.98694
N         -2.55787        0.61082        1.08957
