41
1sa1msa1tma1eda_121.log	Energy: -1085208.3603582
S          0.92649        0.43854       -1.03266
O          1.74878        0.43798       -2.23644
O          1.25721        1.48634       -0.04690
O         -0.55644        0.45752       -1.30624
O          1.13239       -0.97061       -0.30567
H          2.14399       -1.18220       -0.33626
S         -2.59717       -1.78277        0.25579
O         -3.85894       -2.49255        0.26190
O         -2.48845       -0.52055        0.99233
O         -2.20732       -1.52744       -1.25646
H         -1.50641       -0.80616       -1.32895
C         -1.30347       -2.85866        0.82838
H         -1.49191       -3.05611        1.88431
H         -1.35300       -3.77981        0.24776
H         -0.35190       -2.34483        0.67935
H          4.78834        0.94478        0.42615
H          5.49841        0.17189        1.83304
H          5.74235       -1.32938        0.01315
H          4.56139       -2.02464        1.13181
H          3.81430       -0.60246       -1.34138
H          3.82815       -2.21827       -1.14302
H          2.66536        0.71604        1.28712
H          3.11887       -0.38739        2.43161
C          4.64175        0.13194        1.14786
C          4.72525       -1.21174        0.41446
N          3.42601        0.41115        1.88810
N          3.71278       -1.34049       -0.64427
N         -1.69153        2.37412        0.27583
C         -1.31673        2.28289        1.71108
H         -1.77086        1.38399        2.12499
H         -0.23065        2.21125        1.76878
H         -1.67929        3.17604        2.22534
C         -1.05862        3.54805       -0.37896
H          0.01995        3.46772       -0.24688
H         -1.29670        3.52306       -1.44273
H         -1.44901        4.46080        0.07642
C         -3.16258        2.35974        0.07883
H         -3.36938        2.35841       -0.99206
H         -3.56114        1.45258        0.53072
H         -3.59133        3.25128        0.54190
H         -1.30099        1.52880       -0.20898
