35
1sa1msa1ma1eda_157.log	Energy: -1035887.4214714
S         -0.40102       -1.42016       -0.27064
O          0.15680       -1.24161        1.09321
O         -0.67474       -0.09148       -0.90107
O          0.44953       -2.28866       -1.11254
O         -1.78123       -2.14758       -0.16835
H         -2.47545       -1.56939        0.36790
S          2.00613        1.97256       -0.04579
O          2.62413        3.27137       -0.19654
O          2.90373        0.80640        0.03215
O          0.98960        1.78473       -1.22452
H          0.37694        0.96848       -1.11399
C          0.98268        1.94469        1.41123
H          1.64051        2.13067        2.26141
H          0.24438        2.74145        1.31794
H          0.51424        0.95885        1.48717
N          2.73110       -1.91718        0.26130
H          2.00381       -2.20362       -0.44039
H          2.84151       -0.88780        0.15088
C          4.00722       -2.64699        0.14826
H          4.70169       -2.29156        0.90934
H          3.82822       -3.71424        0.27708
H          4.42937       -2.46437       -0.83933
H          2.25161       -2.04379        1.15581
H         -3.84090        1.32061        1.68237
H         -2.19719        0.92074        1.13035
H         -3.40062        2.16213       -0.61966
H         -3.00967        0.52325       -1.14288
H         -5.66304        1.49635       -0.36914
H         -5.22581        0.63654       -1.68983
H         -3.45957       -0.97746        2.13625
H         -4.44573       -0.91599        0.81505
C         -3.25965        0.71987        0.96816
C         -3.63653        1.10107       -0.45906
N         -3.50372       -0.71965        1.15523
N         -5.04180        0.76734       -0.70277
