36
1sa1msa2dma_230.log	Energy: -1025797.1069043
S         -0.10996       -0.02542       -0.12226
O          0.79435       -0.91539       -0.87220
O         -1.46622       -0.53708        0.07876
O          0.47520        0.11567        1.35749
O         -0.13173        1.35740       -0.69800
H          1.45172        0.26574        1.31376
H         -1.51830        1.96756       -0.50552
S          4.00854       -0.31215        0.14244
O          4.50615       -1.56242        0.67858
O          3.12705        0.50185        0.99405
O          3.31229       -0.51863       -1.25982
H          2.31741       -0.67237       -1.14893
C          5.37799        0.70136       -0.35666
H          5.95290        0.91756        0.54427
H          5.97755        0.13350       -1.06780
H          4.99012        1.61563       -0.80374
N         -4.20491       -1.92362        0.35413
C         -4.92989       -1.00992        1.20565
C         -4.79687       -2.08717       -0.95548
H         -3.22338       -1.67429        0.29100
H         -5.92045       -1.42051        1.43430
H         -4.39664       -0.88037        2.15171
H         -5.09282       -0.00736        0.75687
H         -5.77231       -2.57932       -0.86344
H         -4.96455       -1.13348       -1.49624
H         -4.15693       -2.72085       -1.57404
N         -2.53033        2.31032       -0.33063
C         -2.82416        2.14003        1.11515
C         -3.43849        1.54189       -1.21791
H         -2.55956        3.29895       -0.57534
H         -2.70066        1.08295        1.35058
H         -2.10762        2.72719        1.68957
H         -3.84438        2.46607        1.32396
H         -3.30055        0.48520       -0.98853
H         -4.47187        1.84445       -1.04060
H         -3.15852        1.72963       -2.25457
