33
1sa1msa1a1tma_18.log	Energy: -1001161.0503246
S          2.61517       -0.72760       -0.05837
O          2.96233        0.68053        0.25261
O          2.22128       -1.49283        1.14584
O          1.68308       -0.87782       -1.17517
O          3.98914       -1.40012       -0.59831
H          4.66767       -1.29417        0.08229
S         -2.81054       -0.28353       -0.03653
O         -1.99989       -0.73498       -1.19582
O         -2.89676        1.17845        0.11495
O         -2.34896       -0.97571        1.21829
C         -4.47733       -0.86298       -0.31378
H         -4.85259       -0.38749       -1.22033
H         -4.45589       -1.94676       -0.43017
H         -5.08273       -0.57887        0.54729
N         -0.28808       -2.43716        0.35639
H         -1.09853       -1.95907        0.84882
H          0.62640       -2.22372        0.80270
H         -0.43521       -3.43986        0.29323
H         -0.27535       -2.02348       -0.58400
N          0.69776        2.17279        0.04093
C          0.01029        1.58111        1.22172
H         -0.08102        0.50731        1.06930
H          0.61715        1.77293        2.10680
H         -0.99201        2.00100        1.30809
C          0.96252        3.61594        0.23839
H          1.56037        3.74738        1.14080
H          1.50875        3.99924       -0.62384
H          0.00994        4.13931        0.34009
C         -0.04531        1.91259       -1.22512
H          0.52273        2.34500       -2.04951
H         -0.14494        0.83657       -1.36333
H         -1.03998        2.35271       -1.14453
H          1.62065        1.68061       -0.01298
