30
1sa1msa1a1dma_08.log	Energy: -976506.7982231
S          2.48192       -0.43240       -0.18219
O          2.38144       -1.62950       -1.02037
O          2.28292        0.84258       -0.90159
O          1.67464       -0.50448        1.05875
O          4.00319       -0.38625        0.39442
H          4.60897       -0.41357       -0.35856
S         -2.47981       -0.42622        0.03489
O         -2.31418        0.80862        0.85106
O         -2.50338       -1.67074        0.85516
O         -1.48109       -0.49767       -1.05812
C         -4.09627       -0.30898       -0.70828
H         -4.12393        0.58965       -1.32499
H         -4.25779       -1.19906       -1.31642
H         -4.83472       -0.25021        0.09141
N         -0.00270       -2.57837        0.39593
H          0.08415       -2.39289       -0.60636
H          0.62215       -1.87682        0.85323
H         -1.00059       -2.39447        0.67459
H          0.30784       -3.52202        0.60566
N          0.00991        2.04715        0.09800
C         -0.51293        2.94842       -0.94735
C          0.59332        2.72758        1.27192
H         -0.77931        1.44030        0.41448
H          0.30122        3.56326       -1.33392
H         -0.92649        2.33095       -1.74480
H         -1.29500        3.57820       -0.52086
H          1.40443        3.37857        0.94271
H         -0.18299        3.30902        1.77158
H          0.98510        1.96291        1.94255
H          0.74960        1.45001       -0.32306
