38
1sa1msa1dma1eda_368.log	Energy: -1060533.2877874
S         -0.85461       -0.19262        1.01256
O         -1.29635        1.20307        1.13094
O          0.39917       -0.53057        1.70584
O         -1.97159       -1.12190        1.35355
O         -0.62521       -0.48310       -0.55286
H         -3.26191       -0.30348        1.10117
H          0.33597       -0.47756       -0.77175
S          3.20409       -0.75416       -0.40032
O          4.04371        0.25999       -1.01219
O          1.96838       -1.15452       -1.07893
O          2.88729       -0.34158        1.08807
H          1.89520       -0.35168        1.28583
C          4.18378       -2.21697       -0.15132
H          4.48671       -2.57625       -1.13529
H          5.05496       -1.94418        0.44416
H          3.57090       -2.95675        0.36290
N          1.45940        1.99532       -0.53283
C          1.61615        2.77425        0.68654
C          0.46019        2.55032       -1.42882
H          2.35302        1.92971       -1.01022
H          0.68917        2.71702        1.26468
H          2.42234        2.34572        1.28741
H          1.84563        3.83839        0.49717
H         -0.51816        2.49600       -0.94044
H          0.65048        3.60446       -1.70140
H          0.41852        1.95717       -2.34754
H         -4.59682        1.29266       -1.05032
H         -2.85468        0.94187       -0.87557
H         -3.95211       -0.66701       -2.47143
H         -3.28068       -1.47153       -1.05219
H         -6.11432       -1.02745       -1.60576
H         -5.37232       -2.34404       -0.98229
H         -3.94596        1.22411        1.27247
H         -4.95306       -0.08783        0.90056
C         -3.86181        0.55639       -0.71266
C         -4.06952       -0.79286       -1.38875
N         -4.04197        0.35489        0.75093
N         -5.37177       -1.33145       -0.98573
