36
1sa1msa2dma_128.log	Energy: -1025811.3314082
S         -0.28956       -1.24862       -0.14399
O          0.38510       -0.42956       -1.19182
O         -1.45205       -1.98783       -0.67431
O          0.73435       -2.39042        0.27712
O         -0.61470       -0.44349        1.04840
H          1.61000       -1.97377        0.46139
H         -3.10326        0.48986        0.03264
S          3.55186        0.20763       -0.00069
O          4.57142        0.00324       -1.00971
O          3.02119       -0.97110        0.69798
O          2.34912        1.05444       -0.56905
H          1.55641        0.45829       -0.82780
C          4.16831        1.33842        1.22367
H          5.04466        0.87130        1.67385
H          4.44342        2.26594        0.72184
H          3.38915        1.50414        1.96680
N         -3.57604       -0.48010        0.09266
C         -4.76729       -0.52535       -0.77093
C         -3.82934       -0.77765        1.51654
H         -2.84304       -1.14475       -0.25659
H         -5.48980        0.22220       -0.43691
H         -4.46762       -0.31216       -1.79764
H         -5.22089       -1.51713       -0.72537
H         -4.52224       -0.03804        1.92393
H         -4.25720       -1.77711        1.61389
H         -2.87167       -0.73342        2.03684
N         -2.14960        1.87025        0.00779
C         -2.59530        3.02283        0.78453
C         -1.77378        2.21349       -1.36534
H         -1.35014        1.43032        0.46772
H         -3.51595        3.42654        0.35022
H         -2.80378        2.71643        1.81311
H         -1.84866        3.82966        0.80667
H         -2.66093        2.54602       -1.91502
H         -1.02401        3.01598       -1.40347
H         -1.35291        1.33179       -1.85413
