36
1sa1msa2dma_130.log	Energy: -1025811.2431615
S          1.01728        0.56802        0.67489
O          1.06625       -0.81168        0.10807
O          0.05202        0.73705        1.76262
O          2.44583        0.82816        1.27185
O          0.81109        1.57374       -0.41703
H          3.18377        0.43017        0.63642
H         -0.55705        2.27217       -0.31244
S         -2.29352       -1.65919       -0.23407
O         -3.30875       -2.58030       -0.70208
O         -2.45654       -0.23049       -0.51929
O         -0.91219       -2.15552       -0.81309
H         -0.14757       -1.56914       -0.49708
C         -2.08487       -1.82875        1.52615
H         -3.03630       -1.55904        1.98679
H         -1.83984       -2.86935        1.73826
H         -1.29183       -1.14804        1.84705
N         -1.44268        2.88395       -0.32513
C         -2.29004        2.58500        0.85742
C         -2.12536        2.68994       -1.62795
H         -1.09744        3.84060       -0.25895
H         -2.63774        1.55758        0.75836
H         -1.67514        2.66988        1.75234
H         -3.12979        3.28280        0.88196
H         -2.41197        1.64070       -1.69999
H         -3.00610        3.33301       -1.67936
H         -1.42569        2.93990       -2.42583
N          4.22017       -0.22437       -0.29447
C          3.79938       -0.00287       -1.68300
C          4.27909       -1.64691        0.05884
H          5.13144        0.20021       -0.14736
H          2.79796       -0.42000       -1.81022
H          3.74717        1.07004       -1.87906
H          4.48138       -0.47541       -2.40272
H          3.26559       -2.05213        0.01334
H          4.92996       -2.21761       -0.61733
H          4.64571       -1.75090        1.08249
