36
1sa1msa2dma_49.log	Energy: -1025818.3506162
S          0.84886       -1.27883       -0.68848
O          0.87981       -0.26071       -1.74162
O          0.44940       -0.66828        0.63954
O         -0.00652       -2.45225       -0.96796
O          2.29471       -1.85221       -0.48085
H          2.93383       -1.07386       -0.19368
S         -1.49134        2.10871        0.06924
O         -2.03316        3.32567        0.63405
O         -2.37207        0.92673        0.01110
O         -0.18835        1.73430        0.86132
H          0.08476        0.74159        0.72811
C         -0.90709        2.41534       -1.58003
H         -1.77848        2.65099       -2.19219
H         -0.22686        3.26623       -1.53626
H         -0.39372        1.51629       -1.93068
N         -2.27979       -1.80381        0.35029
C         -3.52185       -2.27944       -0.28917
C         -2.14925       -2.14398        1.78289
H         -1.44075       -2.16997       -0.16824
H         -4.38097       -1.81581        0.19782
H         -3.50058       -1.99851       -1.34199
H         -3.58189       -3.36508       -0.19915
H         -2.96744       -1.68246        2.33806
H         -2.18068       -3.22841        1.89857
H         -1.18946       -1.75829        2.12602
H         -2.22247       -0.77062        0.24984
N          3.80997        0.10073        0.33917
C          3.62134        0.14590        1.79301
C          3.42698        1.35532       -0.32007
H          4.78398       -0.10022        0.13081
H          2.55184        0.23225        1.99969
H          3.98043       -0.78636        2.23436
H          4.14581        0.99238        2.25633
H          2.37099        1.55120       -0.12173
H          4.01792        2.20794        0.04080
H          3.55102        1.24932       -1.39915
