35
1sa1msa1ma1eda_92.log	Energy: -1035889.7519286
S         -2.56273       -0.36522       -0.00500
O         -2.21063       -1.19407        1.15092
O         -2.97948        1.01066        0.25608
O         -1.52083       -0.44713       -1.08078
O         -3.85517       -1.13522       -0.62062
H         -4.29616       -0.53103       -1.23270
S          0.61596        2.00288        0.09298
O          1.90697        2.63083       -0.13189
O          0.54544        0.91140        1.06895
O          0.11727        1.47182       -1.30943
H         -0.58733        0.72928       -1.21158
C         -0.59701        3.22022        0.53061
H         -0.29931        3.63880        1.49263
H         -0.59694        3.98673       -0.24404
H         -1.56240        2.71254        0.59877
N          0.40586       -2.03350        0.68062
H         -0.42535       -1.53327        1.03989
H          0.73733       -1.56285       -0.20155
C          0.07215       -3.44387        0.41842
H          0.94378       -3.94899       -0.00052
H         -0.22972       -3.93130        1.34518
H         -0.75436       -3.47601       -0.29105
H          1.22159       -1.91164        1.29946
H          3.65034        0.53970       -0.11499
H          4.77862       -0.73991        0.32143
H          4.01716       -1.17624       -1.87099
H          3.34814       -2.42098       -0.80348
H          1.79101       -0.07006       -1.67339
H          1.69067       -1.54765       -2.34606
H          3.57062       -0.84798        2.16832
H          2.28731       -0.06306        1.53268
C          3.71991       -0.52570        0.14306
C          3.29180       -1.35716       -1.06419
N          2.95233       -0.81771        1.36636
N          1.91517       -1.06251       -1.48255
