32
1sa1msa1a1eda_36.log	Energy: -1011240.5271631
S          2.86254       -0.19150       -0.16855
O          2.74452        1.11720       -0.84470
O          2.15558       -0.19160        1.14178
O          2.54510       -1.36634       -0.97732
O          4.44303       -0.36057        0.16062
H          4.77514        0.48645        0.48680
S         -2.42229       -0.98056       -0.01344
O         -1.24875       -0.82895       -0.93374
O         -2.95408        0.30910        0.45674
O         -2.09100       -1.93920        1.08066
C         -3.70616       -1.75697       -0.97652
H         -3.97483       -1.08249       -1.78970
H         -3.32378       -2.69989       -1.36723
H         -4.55947       -1.92757       -0.31981
N          0.57054       -2.40682        0.82619
H          0.93286       -3.27401        1.21149
H          0.74584       -2.37494       -0.18312
H         -0.46093       -2.29452        1.00633
H          1.11176       -1.59382        1.19711
H         -0.75497        1.20275        1.17274
H          0.76906        2.10638        1.16318
H         -1.36127        3.45166        1.73818
H         -0.38415        4.14473        0.43418
H         -2.72386        2.42596       -0.04126
H         -2.61370        4.04749       -0.36102
H         -0.38305        0.63101       -0.89421
H         -0.54107        2.21873       -1.33160
C         -0.20151        2.00185        0.67920
C         -1.01813        3.29298        0.70705
N          0.01442        1.58705       -0.74001
N         -2.08787        3.18633       -0.28029
H          1.02235        1.57484       -0.98224
