27
1sa1msa1a1ma_168.log	Energy: -951820.5356649
S         -1.49239        0.33999       -0.39397
O         -1.41378       -1.11316       -0.23073
O         -1.54161        1.05633        0.92788
O         -0.43635        0.91871       -1.26218
O         -2.85444        0.69012       -1.12920
H         -3.61063        0.34536       -0.53714
S          3.12753       -0.51004        0.22022
O          2.64754        0.60911        1.02252
O          4.03680       -1.47161        0.81399
O          3.89088        0.15870       -1.04944
H          4.73595       -0.29865       -1.16715
C          1.75953       -1.31020       -0.56298
H          1.10670       -1.69715        0.22152
H          1.20611       -0.57118       -1.14866
H          2.15250       -2.11669       -1.18166
N          0.60819        2.51617        0.62741
H          0.45896        2.37750       -0.38509
H          0.70324        3.49212        0.88740
H         -0.27020        2.04961        1.01493
H          1.43318        1.95806        0.89214
N         -4.57928       -0.32079        0.63023
H         -4.04516       -0.09332        1.46561
C         -4.65535       -1.77673        0.44600
H         -5.13432       -2.29608        1.28483
H         -5.21643       -1.99029       -0.46682
H         -3.64020       -2.15744        0.31536
H         -5.50171        0.08716        0.74035
