33
1sa1msa1a1tma_45.log	Energy: -1001154.1616323
S          2.15074       -1.16466       -0.11409
O          0.82425       -1.67435        0.36522
O          2.21338       -1.04990       -1.56921
O          2.59840        0.00454        0.64554
O          3.20264       -2.31805        0.33338
H          2.99933       -3.11952       -0.16738
S         -2.45152       -0.65952        0.03056
O         -2.62462        0.72028       -0.42348
O         -2.21805       -0.86883        1.45675
O         -1.33782       -1.35421       -0.82236
H         -0.42295       -1.48100       -0.32970
C         -3.87834       -1.59311       -0.46748
H         -3.98845       -1.50185       -1.54780
H         -3.72772       -2.63118       -0.17327
H         -4.73844       -1.16191        0.04549
N          0.16566        0.90668        2.07674
H          1.05324        0.40411        2.05810
H         -0.58227        0.21176        2.07157
H          0.10315        1.41953        2.95022
N          0.38622        2.41837       -0.19459
C         -0.70992        3.40259       -0.04668
H         -1.65881        2.87440       -0.14843
H         -0.64322        3.85725        0.94313
H         -0.61405        4.17301       -0.81582
C          1.72242        3.02367        0.01481
H          1.74352        3.49806        0.99747
H          2.46585        2.22607       -0.02003
H          1.90878        3.76961       -0.76177
C          0.30962        1.71771       -1.50222
H          1.10297        0.97250       -1.56645
H         -0.66405        1.23601       -1.58248
H          0.43053        2.45777       -2.29819
H          0.25398        1.72600        0.62954
