40
1sa1msa2eda_55.log	Energy: -1095297.6592196
S          2.71879       -0.76014       -0.34063
O          2.83260       -0.47311        1.09410
O          2.19407       -2.12217       -0.62018
O          2.05121        0.27559       -1.13757
O          4.23783       -0.74696       -0.93251
H          4.78144       -1.31157       -0.36713
S         -3.17442        0.27478       -0.24870
O         -2.83625        1.63021        0.26721
O         -3.34674       -0.73857        0.80948
O         -2.19315       -0.15210       -1.29761
C         -4.74175        0.44305       -1.08155
H         -5.47739        0.76892       -0.34607
H         -4.63197        1.18483       -1.87257
H         -5.01543       -0.52746       -1.49575
H         -1.97928       -2.64443        0.64845
H         -0.66769       -3.85720        0.53251
H         -0.47465       -2.57227        2.59967
H          0.93026       -2.30116        1.55329
H         -1.29941       -0.43300        1.89171
H          0.28538       -0.24337        2.33478
H         -0.81800       -2.83274       -1.54568
H         -1.00670       -1.30964       -0.94125
C         -0.90242       -2.79048        0.53600
C         -0.13948       -2.10716        1.66206
N         -0.51565       -2.22413       -0.78819
N         -0.33541       -0.65597        1.64487
H          0.52762       -2.11785       -0.84352
H         -0.01957        3.75753        0.71223
H          0.15414        2.51208        1.96794
H          2.32148        3.69081        1.43170
H          2.41772        1.95082        1.13731
H          2.92833        3.91483       -0.72701
H          2.65198        2.32035       -1.06210
H         -1.15197        1.86116       -0.03564
H          0.31269        1.91864       -0.90564
C          0.44486        2.79911        0.95421
C          1.96044        2.88348        0.78687
N         -0.11234        1.79470        0.01736
N          2.27641        3.15107       -0.61408
H          0.08362        0.82564        0.33348
