32
1sa1msa1a1eda_30.log	Energy: -1011242.7143222
S         -0.24780        2.30720       -0.15803
O         -0.19417        1.44953        1.07422
O         -0.14280        1.25036       -1.38342
O         -1.51647        2.97102       -0.37717
O          0.97001        3.15037       -0.21570
H          2.16890        2.32371        0.63283
S          1.71881       -1.64566       -0.07699
O          0.35225       -2.15026       -0.36064
O          2.02719       -1.47071        1.35228
O          2.02059       -0.38660       -0.85232
H          0.65041        0.67342       -1.27324
C          2.83249       -2.87321       -0.73234
H          2.64958       -3.80857       -0.20297
H          2.63053       -2.98592       -1.79743
H          3.85409       -2.53122       -0.56625
N          2.64098        1.48119        1.05507
H          3.55753        1.67374        1.44515
H          2.00225        1.10508        1.75984
H          2.67231        0.75518        0.30525
H         -3.19393        0.52150       -0.11086
H         -2.11813       -0.23608       -1.28300
H         -4.38959       -1.32381       -1.30309
H         -3.13444       -2.46672       -0.81149
H         -5.02507       -1.14557        0.99487
H         -4.70440       -2.74243        0.84417
H         -1.20014        0.13959        1.00572
H         -2.25405       -1.12615        1.49945
C         -2.68791       -0.41231       -0.37046
C         -3.67396       -1.56406       -0.50635
N         -1.72878       -0.72365        0.71816
N         -4.29197       -1.81873        0.79643
H         -0.99998       -1.39439        0.39077
