41
1sa1msa1tma1eda_193.log	Energy: -1085200.9908744
S         -2.36375       -0.99614       -0.66849
O         -2.78091       -1.93318        0.36090
O         -3.06033        0.31951       -0.68106
O         -0.89685       -0.80414       -0.76043
O         -2.81302       -1.71188       -2.05547
H         -2.80417       -1.04394       -2.75401
S         -0.29135        2.27639        0.27865
O          0.91272        1.87949       -0.44275
O         -0.61508        1.51662        1.48727
O         -1.53412        2.34337       -0.67396
H         -2.12964        1.50244       -0.64690
C         -0.14821        3.99908        0.69106
H          0.72434        4.10324        1.33659
H         -0.01111        4.55896       -0.23378
H         -1.05678        4.30721        1.20719
H          3.54954        0.84859       -0.22818
H          4.97753        0.68778       -1.23958
H          2.96821        0.66174       -2.64170
H          3.70648       -0.95134       -2.68194
H          1.32651       -0.14280       -1.19925
H          1.47974       -1.38163       -2.22691
H          3.80554       -1.69862       -0.09076
H          5.36111       -1.42178       -0.48795
C          4.09783        0.14936       -0.87248
C          3.18498       -0.23223       -2.03819
N          4.54027       -0.99481       -0.07193
N          1.97460       -0.86571       -1.50776
N          0.39451       -1.36791        1.59986
C          0.68529       -2.72924        1.07997
H         -0.25658       -3.18559        0.77484
H          1.34337       -2.61682        0.21605
H          1.16097       -3.31457        1.87008
C          1.63293       -0.65382        1.99823
H          2.31106       -0.62623        1.14797
H          1.36273        0.35865        2.29267
H          2.09559       -1.19094        2.82907
C         -0.60770       -1.39399        2.69758
H         -0.81836       -0.36574        2.98830
H         -1.51723       -1.86143        2.31942
H         -0.19154       -1.95859        3.53492
H         -0.04130       -0.86698        0.79696
