40
1sa1msa2eda_211.log	Energy: -1095280.2035565
S         -1.08341       -0.29790       -1.81488
O         -2.06810       -0.46301       -2.86735
O         -0.91288       -1.52788       -0.97899
O          0.22609        0.26449       -2.23996
O         -1.61042        0.81964       -0.78337
H          0.75288        1.53177       -1.32638
H         -2.38473        0.40777       -0.24349
S          2.28986       -1.23852        0.39677
O          3.27834       -1.73918        1.32983
O          1.77492        0.12237        0.59544
O          1.08865       -2.25189        0.38872
H          0.30058       -1.92006       -0.17807
C          2.91971       -1.34226       -1.26430
H          3.80158       -0.70206       -1.31812
H          3.19029       -2.38071       -1.45501
H          2.13611       -0.99760       -1.94342
H         -1.91271       -2.18047        1.92235
H         -2.14639       -1.40008        3.48968
H         -4.22221       -1.32398        2.33470
H         -3.57618        0.32969        2.42224
H         -3.34752       -1.39857        0.05083
H         -4.42384       -0.18294        0.22431
H         -0.15318       -0.58102        2.63745
H         -0.77283       -0.22387        1.19337
C         -2.08150       -1.20766        2.41382
C         -3.43023       -0.65575        1.96949
N         -0.99996       -0.25534        2.18275
N         -3.50037       -0.49901        0.50584
H          0.48633        4.35454       -0.42503
H         -0.81228        3.17227       -0.78496
H         -0.46894        3.63829        1.71627
H         -0.34322        1.94219        1.27362
H          1.74049        3.58263        2.31810
H          1.72638        1.94837        2.07003
H          1.55528        2.90104       -1.81976
H          1.90023        2.26900       -0.30513
C          0.15823        3.31811       -0.31055
C          0.14172        2.91480        1.16680
N          1.15584        2.45213       -0.99933
N          1.51741        2.85033        1.65789
