33
1sa1msa1ma1dma_128.log	Energy: -1001150.3299089
S          1.18031        0.56672       -0.97748
O         -0.23617        0.27747       -1.35729
O          2.19169        0.02002       -1.87430
O          1.30799        2.02892       -0.72359
O          1.35015       -0.14821        0.43804
H         -0.11249        2.47974       -0.09535
H          2.30893       -0.57312        0.48440
S         -3.09343       -0.71992       -0.02062
O         -4.06288       -0.51067       -1.07922
O         -2.70094        0.46538        0.76620
O         -1.81165       -1.45687       -0.52866
H         -1.09523       -0.79150       -0.88590
C         -3.71429       -1.93744        1.11396
H         -4.63469       -1.53614        1.53884
H         -3.91599       -2.85046        0.55397
H         -2.96571       -2.10717        1.88691
N         -0.96644        2.57964        0.52975
H         -1.44249        3.45772        0.33824
C         -0.52752        2.47014        1.94087
H         -1.39675        2.48833        2.59765
H         -0.00163        1.52098        2.04300
H          0.15107        3.29068        2.17265
H         -1.61611        1.79581        0.32463
N          3.74662       -1.12136        0.34323
C          4.01664       -2.39641        1.00117
C          4.69434       -0.06474        0.69619
H          3.73857       -1.23486       -0.66910
H          3.90112       -2.27440        2.08221
H          3.29298       -3.14022        0.66085
H          5.03145       -2.76774        0.80095
H          4.60663        0.15216        1.76501
H          5.73506       -0.34331        0.48069
H          4.44326        0.83907        0.13652
