36
1sa1msa2dma_159.log	Energy: -1025808.2803568
S         -0.15358       -1.46290       -0.20513
O          1.04821       -1.73627       -1.02225
O         -1.15827       -2.52096       -0.18980
O          0.33912       -1.35953        1.32062
O         -0.74870       -0.12896       -0.52811
H          1.11412       -0.75111        1.35830
H         -2.32024       -0.33358       -0.15841
S          3.50733        0.39766        0.12543
O          4.72331       -0.30892        0.47287
O          2.40759        0.40129        1.10273
O          2.95392       -0.06319       -1.27396
H          2.18586       -0.73184       -1.18551
C          3.90599        2.08788       -0.25156
H          4.32984        2.52429        0.65328
H          4.63914        2.09093       -1.05793
H          2.99209        2.60241       -0.54559
N         -3.31887        2.41047        0.05970
C         -2.78154        2.60224       -1.29122
C         -2.28999        2.60567        1.08725
H         -4.07976        3.06367        0.21614
H         -2.01337        1.84518       -1.47894
H         -3.58143        2.48314       -2.02696
H         -2.32239        3.59189       -1.42759
H         -1.50934        1.84877        0.95708
H         -1.81542        3.59541        1.02754
H         -2.73456        2.48866        2.07916
N         -3.33858       -0.38703        0.11764
C         -3.42003       -0.97774        1.47019
C         -4.06064       -1.14884       -0.91935
H         -3.62580        0.62499        0.13492
H         -2.99454       -1.98120        1.43416
H         -2.82723       -0.36559        2.15072
H         -4.46133       -1.00458        1.79730
H         -3.61011       -2.13965       -0.99205
H         -5.11787       -1.22294       -0.65701
H         -3.94970       -0.63213       -1.87337
