41
1sa1msa1tma1eda_21.log	Energy: -1085219.0796946
S         -2.53520        1.19485       -0.33211
O         -3.32302        0.25244       -1.12870
O         -1.69112        0.54808        0.70041
O         -1.79957        2.20197       -1.11973
O         -3.59052        2.03727        0.58323
H         -4.16387        2.53976       -0.01125
S          2.50551       -1.34424       -0.16036
O          1.93032       -2.59067        0.38127
O          3.00532       -0.39238        0.84962
O          1.56549       -0.67719       -1.12831
C          3.91647       -1.83618       -1.14372
H          4.63007       -2.32835       -0.48222
H          3.57531       -2.52354       -1.91810
H          4.35779       -0.94361       -1.58798
H          0.32384        2.98466        1.08641
H          0.84729        1.32318        1.42431
H          2.57204        3.01850        2.15037
H          3.17046        1.87494        0.94128
H          2.42591        4.67150        0.43150
H          3.80549        3.88870        0.03043
H         -0.06098        1.99947       -0.89903
H          1.51307        2.56509       -1.10716
C          1.06749        2.21978        0.84643
C          2.48726        2.71292        1.09973
N          0.92528        1.89571       -0.59616
N          2.80546        3.77619        0.14214
H          1.23498        0.90893       -0.80619
N         -1.77140       -2.16059        0.44542
C         -0.96931       -2.85357        1.48749
H          0.09119       -2.65619        1.31244
H         -1.28293       -2.48505        2.46528
H         -1.15894       -3.92704        1.41394
C         -3.22179       -2.44027        0.58729
H         -3.53151       -2.17526        1.59908
H         -3.76269       -1.82767       -0.13413
H         -3.39479       -3.50396        0.40981
C         -1.28467       -2.45811       -0.93001
H         -1.90472       -1.89767       -1.63069
H         -0.24394       -2.13933       -1.00931
H         -1.37260       -3.53253       -1.10565
H         -1.65862       -1.12699        0.58103
