36
1sa1msa2dma_186.log	Energy: -1025800.8111178
S         -1.19067       -0.55249       -0.70942
O         -0.03017       -0.41117       -1.60382
O         -2.37536       -1.17923       -1.32883
O         -0.78623       -1.60117        0.43686
O         -1.54256        0.71379       -0.01470
H          0.11240       -1.37357        0.78641
H         -3.25692        0.61209        0.39593
S          2.89293       -1.01223        0.30470
O          3.73267       -2.15801        0.57770
O          1.67894       -0.81754        1.11775
O          2.46972       -1.05450       -1.22026
H          1.51040       -0.79541       -1.35700
C          3.85965        0.46881        0.40592
H          4.25594        0.51631        1.42150
H          4.67284        0.37489       -0.31457
H          3.22477        1.34047        0.19386
N         -4.10102       -0.00466        0.35103
C         -5.32847        0.74393        0.02440
C         -4.15733       -0.81699        1.58742
H         -3.79135       -0.61730       -0.43757
H         -5.54919        1.44861        0.82736
H         -5.17078        1.28432       -0.90885
H         -6.15751        0.04423       -0.09079
H         -4.35910       -0.16467        2.43811
H         -4.94600       -1.56448        1.49259
H         -3.19133       -1.30843        1.71217
N          1.82336        3.02746        0.12000
C          0.99069        2.69021        1.26792
C          1.11583        2.89269       -1.14786
H          2.17018        3.97559        0.21690
H          0.71872        1.63268        1.21725
H          1.55343        2.85572        2.19151
H          0.05425        3.27172        1.31290
H          0.82956        1.84842       -1.29809
H          0.19320        3.49540       -1.19763
H          1.77542        3.18998       -1.96812
