33
1sa1msa1a1tma_62.log	Energy: -1001153.3753128
S          0.16623        1.76663        0.10599
O          0.38438        0.55944       -0.78026
O         -0.26700        1.31261        1.44275
O          1.29641        2.67836        0.06809
O         -1.05405        2.56055       -0.55308
H         -1.79838        1.93074       -0.68096
S         -2.73046       -0.85871       -0.25420
O         -3.60714       -1.92406       -0.68870
O         -2.87942        0.47562       -0.84290
O         -1.23427       -1.33698       -0.46984
H         -0.60276       -0.53085       -0.63049
C         -2.84489       -0.68527        1.51301
H         -3.85718       -0.34286        1.73176
H         -2.66809       -1.66174        1.96465
H         -2.10310        0.05292        1.82610
N          1.03037       -1.34467        1.58403
H          0.28760       -1.87052        1.12633
H          0.62705       -0.42091        1.77913
H          1.23428       -1.79745        2.46929
N          3.11165       -0.90924       -0.18423
C          3.66425        0.45233        0.03652
H          2.93488        1.19754       -0.28442
H          3.85572        0.58209        1.10273
H          4.59646        0.55328       -0.52459
C          4.04208       -1.95820        0.28880
H          4.24728       -1.79777        1.34802
H          3.57558       -2.93491        0.15304
H          4.97279       -1.90818       -0.28047
C          2.72258       -1.12033       -1.60141
H          2.24022       -2.09493       -1.69195
H          2.01768       -0.33772       -1.87887
H          3.61954       -1.08832       -2.22490
H          2.23848       -1.01532        0.43843
