35
1sa1msa1ma1eda_253.log	Energy: -1035881.4465270
S         -0.00337       -1.23806        0.12560
O          1.24323       -1.92870       -0.26460
O         -1.05953       -2.11048        0.62572
O          0.38033       -0.33166        1.43238
O         -0.45685       -0.25508       -0.88978
H          1.22789        0.13671        1.23883
H         -1.42015        0.94005       -0.05175
S          3.78445        0.39457       -0.06916
O          4.85980       -0.06877        0.78344
O          2.59375        0.96966        0.58132
O          3.33048       -0.71668       -1.08432
H          2.48581       -1.20364       -0.77758
C          4.42070        1.60025       -1.20775
H          4.78748        2.43790       -0.61387
H          5.23663        1.13897       -1.76400
H          3.61575        1.91038       -1.87283
N         -1.91063        1.32716        0.78646
H         -2.75800        0.70017        0.90533
C         -2.22328        2.76347        0.66710
H         -2.67354        3.11746        1.59534
H         -1.30520        3.31758        0.47068
H         -2.93097        2.88229       -0.15290
H         -1.26048        1.11472        1.54859
H         -6.09879       -0.41829       -0.66490
H         -5.26807        0.03519       -2.15355
H         -4.19969       -1.89541       -1.04116
H         -3.09246       -0.53584       -1.22736
H         -4.49977       -1.14453        1.27896
H         -2.92157       -1.44472        0.93344
H         -5.62183        2.02320       -1.04810
H         -5.13166        1.45673        0.39589
C         -5.16975        0.02160       -1.06415
C         -3.99192       -0.87216       -0.70161
N         -4.95855        1.39794       -0.60299
N         -3.70407       -0.81346        0.73982
