41
1sa1msa1tma1eda_17.log	Energy: -1085218.0976109
S         -2.82056       -1.07350       -0.04196
O         -3.31863        0.00220       -0.90592
O         -2.68227       -2.38345       -0.68270
O         -1.62024       -0.66487        0.73657
O         -3.92423       -1.26542        1.15183
H         -4.70356       -1.68170        0.76038
S          2.83583        0.95566        0.15442
O          3.41194       -0.04671        1.06662
O          2.22140        2.13428        0.78209
O          1.86379        0.29778       -0.81528
C          4.17131        1.54602       -0.87403
H          4.62103        0.69343       -1.38323
H          3.76889        2.25890       -1.59384
H          4.89959        2.02999       -0.22258
H         -0.73824        3.14857       -1.60666
H         -1.81999        1.73436       -1.79017
H         -3.08269        3.71672       -0.95247
H         -3.09290        2.36408        0.17881
H         -1.52430        4.82658        0.46903
H         -2.46063        4.06296        1.57573
H          0.32899        1.24935       -0.60787
H         -0.17305        2.27588        0.59199
C         -1.37253        2.42989       -1.07936
C         -2.45452        3.13153       -0.26785
N         -0.50782        1.66036       -0.15748
N         -1.83244        3.91765        0.79566
H         -1.02294        0.85562        0.26995
N          1.47909       -2.30788       -0.07347
C          1.04523       -2.33210        1.35051
H          1.76370       -1.74888        1.92774
H          0.05040       -1.88709        1.41184
H          1.02252       -3.37035        1.68996
C          0.50509       -2.99004       -0.96334
H         -0.49461       -2.58358       -0.80400
H          0.81319       -2.83804       -1.99872
H          0.50281       -4.05701       -0.72916
C          2.84931       -2.85416       -0.23477
H          3.13559       -2.77314       -1.28439
H          3.52486       -2.25960        0.38025
H          2.85176       -3.90225        0.07268
H          1.53615       -1.29743       -0.36008
