33
1sa1msa1a1tma_21.log	Energy: -1001158.8363834
S          1.67073        0.00524        0.18585
O          1.33777       -1.33444       -0.38263
O          1.98390        1.00026       -0.84895
O          0.63387        0.47893        1.13719
O          2.95732       -0.22381        1.08268
H          3.59548       -0.82167        0.56697
S         -2.17591       -1.50841       -0.09064
O         -3.39682       -2.22991       -0.38398
O         -2.15928       -0.05597       -0.28429
O         -1.03112       -2.17085       -0.95195
H         -0.12057       -1.77156       -0.76238
C         -1.66824       -1.82949        1.58506
H         -2.45789       -1.45063        2.23532
H         -1.55601       -2.90676        1.70551
H         -0.73097       -1.29717        1.76223
N          4.33822       -1.90904       -0.47090
H          4.84614       -1.46966       -1.23132
H          3.49711       -2.33344       -0.85700
H          4.92003       -2.63918       -0.07519
N         -0.67297        2.54645       -0.05304
C         -1.95958        2.86663        0.61020
H         -2.67065        2.07478        0.37908
H         -1.79460        2.91371        1.68725
H         -2.31775        3.83195        0.24466
C          0.38799        3.53041        0.28123
H          0.50715        3.56232        1.36438
H          1.31700        3.18939       -0.17619
H          0.09612        4.51177       -0.09959
C         -0.82689        2.39644       -1.52510
H          0.13484        2.08106       -1.92983
H         -1.57679        1.62946       -1.71217
H         -1.13350        3.35794       -1.94399
H         -0.33392        1.62897        0.33364
