38
1sa1msa1dma1eda_209.log	Energy: -1060547.6042088
S         -0.02207       -1.48567       -0.76401
O          0.59162       -0.45271       -1.64467
O         -0.29625       -0.90479        0.59083
O         -1.17809       -2.15922       -1.33259
O          1.08598       -2.60974       -0.54935
H          1.91563       -2.16816       -0.25135
S          3.21774        0.40684        0.47516
O          4.49505        1.07057        0.60620
O          3.18749       -1.04720        0.28215
O          2.42867        1.09963       -0.70779
H          1.72550        0.47911       -1.08953
C          2.21077        0.78121        1.89382
H          2.70556        0.34421        2.76217
H          2.14968        1.86533        1.98996
H          1.23109        0.32691        1.73080
N         -2.95487       -0.62299        0.97873
C         -3.76812       -1.69249        0.36298
C         -3.16598       -0.45663        2.42804
H         -1.93448       -0.81270        0.80960
H         -4.82714       -1.45136        0.47704
H         -3.49290       -1.77120       -0.68807
H         -3.54683       -2.64210        0.85225
H         -4.20963       -0.19965        2.61989
H         -2.91521       -1.38550        2.94281
H         -2.51726        0.34266        2.78845
H         -3.16058        0.30385        0.49179
H         -2.60086        3.79821       -0.37770
H         -2.32549        2.92692        1.13996
H         -0.25940        3.04822       -0.26818
H         -0.76028        1.38507        0.02386
H         -0.91487        2.79815       -2.49602
H         -0.58568        1.21745       -2.17182
H         -4.34790        2.23443       -0.18504
H         -3.28657        1.62860       -1.28686
C         -2.37867        2.81121        0.05150
C         -1.03950        2.30868       -0.49354
N         -3.42277        1.83040       -0.29236
N         -1.17094        2.00812       -1.91600
