27
1sa1msa1a1ma_173.log	Energy: -951820.6192743
S         -1.51036        0.44335       -0.10908
O         -0.74679        0.93084       -1.28655
O         -1.66036       -1.01361       -0.03762
O         -0.92623        1.01626        1.14921
O         -2.95835        1.07201       -0.26737
H         -3.64196        0.44276        0.16878
S          3.17376       -0.52194        0.14771
O          3.09762        0.93288        0.21992
O          3.93809       -1.24813        1.14376
O          3.81896       -0.85731       -1.30199
H          4.52472       -1.50757       -1.17456
C          1.54117       -1.18355       -0.02021
H          0.99250       -0.93950        0.89173
H          1.05622       -0.71528       -0.87892
H          1.61939       -2.26276       -0.14625
N          0.83760        2.62059        0.06832
H          0.39245        2.30751       -0.81594
H          0.87471        3.63035        0.15759
H          0.18351        2.15440        0.76591
H          1.76800        2.18592        0.14177
N         -4.57106       -0.76052        0.73236
H         -3.91633       -1.26664        1.32284
C         -4.93957       -1.58246       -0.42785
H         -5.45229       -2.51308       -0.15748
H         -5.58800       -1.00013       -1.08661
H         -4.02460       -1.82462       -0.97198
H         -5.38157       -0.52179        1.29379
