36
1sa1msa1ma1tma_111.log	Energy: -1025805.8728665
S         -0.79566       -0.36959       -0.94284
O          0.40693        0.15021       -1.61460
O         -1.91341       -0.74269       -1.80359
O         -0.38933       -1.73378       -0.21057
O         -1.23889        0.56051        0.15543
H          0.46056       -1.60079        0.28296
H         -2.71563        0.22631        0.45515
S          3.18619       -0.71966        0.42023
O          4.29742       -1.64485        0.44429
O          1.90480       -1.13795        1.01409
O          2.92939       -0.30803       -1.08768
H          1.96166       -0.12082       -1.26761
C          3.65601        0.80792        1.18416
H          3.85352        0.58793        2.23448
H          4.56298        1.15623        0.68912
H          2.82519        1.51981        1.07188
N          1.04050        2.67946        0.59422
H          0.29655        1.98687        0.53232
C          1.24888        3.31106       -0.70805
H          0.36234        3.82116       -1.11237
H          2.06068        4.04175       -0.63681
H          1.54550        2.54702       -1.42977
H          0.75244        3.36747        1.28186
N         -3.73944       -0.04333        0.64603
C         -3.78337       -1.52723        0.70223
H         -3.44531       -1.91471       -0.25900
H         -3.10135       -1.86740        1.48180
H         -4.80463       -1.84935        0.91933
C         -4.11413        0.57365        1.93725
H         -3.45331        0.19051        2.71539
H         -3.99245        1.65452        1.85966
H         -5.15295        0.33097        2.17341
C         -4.53903        0.48544       -0.48625
H         -4.42850        1.57003       -0.51543
H         -4.13964        0.05764       -1.40595
H         -5.58896        0.21739       -0.34546
