30
1sa1msa2ma_52.log	Energy: -976492.7724765
S          2.03634       -0.95083       -0.20770
O          1.64952       -0.98432       -1.61484
O          2.81909        0.21497        0.20858
O          0.89196       -1.18303        0.73884
O          2.93444       -2.27764        0.06800
H          3.57177       -2.35603       -0.65464
S         -2.33331       -0.46385        0.07796
O         -2.00460        0.32743       -1.10141
O         -2.25323        0.22907        1.36830
O         -1.49781       -1.79421        0.11989
H         -0.50735       -1.61307        0.30557
C         -3.95396       -1.16191       -0.10661
H         -4.65512       -0.32774       -0.14337
H         -3.97641       -1.72824       -1.03720
H         -4.15512       -1.80134        0.75219
N          0.54654        1.94797       -1.25836
H          1.53596        1.96705       -1.49061
C         -0.17299        3.08564       -1.83618
H         -0.05035        3.17063       -2.92232
H         -1.23721        2.97012       -1.61943
H          0.17697        4.01483       -1.37710
H          0.18590        1.07511       -1.64104
N          0.33114        1.48817        1.42762
H          0.60928        0.49377        1.46511
H          0.38533        1.73651        0.36705
C          1.23798        2.33877        2.21862
H          0.96445        3.38594        2.08325
H          1.17566        2.07676        3.27524
H          2.25182        2.16821        1.85592
H         -0.64886        1.51625        1.71845
