33
1sa1msa1ma1dma_206.log	Energy: -1001137.0016455
S          2.30244       -0.72512       -0.24686
O          1.02491       -1.44440       -0.37633
O          3.45594       -1.38342       -0.87956
O          2.16297        0.64549       -1.07136
O          2.59994       -0.32907        1.16130
H          1.30799        1.08014       -0.82940
H          4.22603       -0.18787        1.25988
S         -1.49550        0.90731       -0.14829
O         -2.28836        0.81251       -1.36213
O         -0.21166        1.62155       -0.23267
O         -1.24132       -0.52660        0.46947
H         -0.35860       -0.90833        0.15792
C         -2.47111        1.62463        1.14290
H         -2.67611        2.65287        0.84187
H         -3.39905        1.04231        1.20051
H         -1.89535        1.59445        2.06722
N          5.19457       -0.21455        0.81797
H          5.90048       -0.54684        1.46980
C          5.51565        1.10642        0.22421
H          6.45765        1.04693       -0.32002
H          4.70474        1.36555       -0.45739
H          5.58143        1.85017        1.01740
H          5.01577       -0.90984        0.06999
N         -4.84041       -0.39342        0.12562
C         -6.25610       -0.15425       -0.09956
C         -4.55661       -1.76295        0.52848
H         -4.31503       -0.17444       -0.71652
H         -6.79857       -0.25984        0.84667
H         -6.40656        0.86644       -0.46194
H         -6.70964       -0.85170       -0.82568
H         -5.01751       -1.95685        1.50368
H         -4.94113       -2.51583       -0.18134
H         -3.47714       -1.89813        0.62869
