38
1sa1msa1dma1eda_313.log	Energy: -1060543.7953895
S          2.52279       -0.20760       -0.79519
O          2.47636       -1.43849        0.02144
O          3.12226       -0.34164       -2.10894
O          1.20500        0.48209       -0.74134
O          3.46353        0.84492        0.04227
H          4.36193        0.77870       -0.30774
S         -1.43638        2.07877        0.01325
O         -2.32842        3.15285        0.38148
O         -1.41749        0.87593        0.86561
O          0.03131        2.67553       -0.04269
H          0.66717        1.94466       -0.29710
C         -1.73856        1.55169       -1.65872
H         -2.62873        0.91697       -1.64635
H         -1.87550        2.44553       -2.26690
H         -0.87204        0.97782       -1.99299
N          0.53499       -0.81145        1.91173
C         -0.23226       -1.83138        2.65605
C          1.30034        0.12816        2.76068
H          1.18858       -1.25726        1.23440
H         -0.94753       -1.32866        3.30892
H         -0.74832       -2.44521        1.91730
H          0.45459       -2.43643        3.24988
H          0.60443        0.70268        3.37300
H          1.98413       -0.43941        3.39305
H          1.87064        0.79718        2.11639
H         -0.12207       -0.26011        1.33298
H         -2.95830       -3.08812        0.44102
H         -3.81807       -3.10576       -1.10777
H         -1.49177       -3.88791       -1.30520
H         -1.81665       -2.47189       -2.31763
H          0.29510       -2.51703       -0.88067
H         -0.57228       -1.15859       -0.83156
H         -4.30539       -1.05204       -0.13807
H         -2.75052       -0.71384        0.21541
C         -3.02353       -2.60196       -0.54673
C         -1.70437       -2.81387       -1.27828
N         -3.35223       -1.17959       -0.46021
N         -0.60166       -2.14400       -0.58293
