24
1sa1msa2a_53.log	Energy: -927171.5296304
S          1.25324       -0.67122       -0.33932
O          2.52731       -0.88133       -1.02672
O          0.10946       -1.43875       -0.86668
O          1.38252       -0.77836        1.13997
O          0.92434        0.88760       -0.63845
H          2.98794       -0.50079        1.44958
H         -0.00050        1.08125       -0.34815
S         -2.77153        0.28160       -0.00178
O         -3.60785        0.57011       -1.14858
O         -1.61156        1.15388        0.24227
O         -2.29596       -1.22062       -0.00181
H         -1.34110       -1.32146       -0.33496
C         -3.77096        0.28004        1.46643
H         -4.19604        1.27921        1.56531
H         -4.55919       -0.46163        1.33737
H         -3.13536        0.03642        2.31691
N          3.71376        2.00514       -0.24403
H          4.13797        1.84978       -1.15439
H          3.91930        2.95980        0.03251
H          2.70436        1.92462       -0.38984
N          4.00910       -0.28977        1.26268
H          4.30771       -0.99021        0.58426
H          4.57874       -0.31541        2.10249
H          4.02855        0.66429        0.76735
