40
1sa1msa2eda_98.log	Energy: -1095294.7275706
S         -2.21172        1.46281        0.27208
O         -2.51833        0.53026        1.38181
O         -1.70526        2.76475        0.69282
O         -1.42866        0.80025       -0.79573
O         -3.63371        1.72364       -0.48482
H         -4.17772        2.28727        0.08174
S          2.33478       -1.72084       -0.00833
O          2.80765       -0.70421       -0.98972
O          1.71475       -2.91248       -0.60024
O          1.45500       -1.07788        1.02777
C          3.79570       -2.25369        0.86745
H          4.47893       -2.69490        0.14132
H          4.25033       -1.38593        1.34543
H          3.49703       -2.99247        1.61118
H         -1.21369       -1.58788       -1.19981
H         -0.77452       -3.21755       -0.66464
H         -3.03246       -3.29723       -1.57918
H         -3.16163       -3.54382        0.14876
H         -3.92088       -1.26419        0.36276
H         -3.74337       -1.01388       -1.23435
H         -0.12653       -1.56120        0.92696
H         -1.70132       -0.97444        1.06640
C         -1.45549       -2.38169       -0.49168
C         -2.92352       -2.79064       -0.61440
N         -1.14380       -1.83231        0.85909
N         -3.91429       -1.73193       -0.53760
H         -1.33144       -2.52063        1.58627
H          0.74705        2.81652        0.65818
H          1.53221        1.29140        1.13356
H          3.13912        3.22434        1.30653
H          3.66486        2.02689        0.11317
H          2.42318        4.60770       -0.50906
H          3.82857        3.98725       -1.07562
H          0.22310        1.27049       -0.98186
H          1.46711        2.23006       -1.62843
C          1.54195        2.10847        0.41025
C          2.90404        2.78408        0.32881
N          1.22924        1.52773       -0.92136
N          2.89220        3.74752       -0.77362
H          1.81194        0.66969       -1.07269
