38
1sa1msa1dma1eda_174.log	Energy: -1060549.2696629
S         -1.36745        0.79421        0.51897
O         -2.44923        0.98550        1.47571
O         -0.03423        0.48574        1.12693
O         -1.69220       -0.52219       -0.32481
O         -1.21291        1.90569       -0.45665
H         -2.71778       -0.55446       -0.53803
H          0.44209        2.09400       -0.82017
S          1.94978       -2.00195       -0.02906
O          3.02211       -2.94397        0.20599
O          2.27611       -0.76625       -0.76517
O          1.31594       -1.62760        1.35715
H          0.69659       -0.81283        1.28976
C          0.61674       -2.79709       -0.89393
H          0.97968       -3.04359       -1.89243
H          0.35605       -3.70024       -0.34198
H         -0.22356       -2.09944       -0.93067
N         -4.25416       -0.53585       -0.77644
C         -4.62603        0.84254       -1.12054
C         -4.89958       -1.00122        0.45682
H         -4.50765       -1.15167       -1.54385
H         -4.29589        1.50228       -0.31494
H         -4.11012        1.13966       -2.03601
H         -5.70973        0.95683       -1.25818
H         -4.52101       -0.40163        1.28782
H         -5.99345       -0.91122        0.41040
H         -4.63336       -2.04572        0.63424
H          2.19310        3.63927        0.10322
H          1.55573        2.39450        1.21449
H          4.14205        2.61756        1.13659
H          3.48570        0.99426        0.93407
H          5.11255        2.31569       -0.87559
H          4.30258        0.91281       -1.13335
H          1.93956        2.16274       -1.68078
H          1.57078        0.87566       -0.71592
C          2.16005        2.56971        0.32359
C          3.56337        1.97924        0.46283
N          1.47293        1.90284       -0.81145
N          4.19935        1.88230       -0.85398
