38
1sa1msa1dma1eda_343.log	Energy: -1060537.3155573
S          0.50345       -1.88609        0.31785
O         -0.80160       -2.37957        0.78672
O          1.61671       -2.82692        0.35182
O          0.33702       -1.52942       -1.24332
O          0.86570       -0.58348        0.97648
H         -0.47920       -0.98271       -1.34688
H          2.43159       -0.51150        0.92739
S         -3.05497        0.05123       -0.35618
O         -4.22835       -0.47630       -1.02106
O         -1.80050        0.11003       -1.13073
O         -2.78164       -0.71258        0.99877
H         -2.02385       -1.37558        0.92429
C         -3.38735        1.67610        0.26783
H         -3.68912        2.28401       -0.58633
H         -4.20207        1.59772        0.98792
H         -2.46432        2.05284        0.72226
N         -0.17361        2.24754        0.71901
C          0.73647        2.72764        1.73881
C         -0.03980        2.93766       -0.54704
H         -0.04541        1.24551        0.59997
H          0.52509        3.77926        1.96394
H          0.59853        2.14928        2.65553
H          1.80333        2.65862        1.44811
H         -0.36813        3.97858       -0.44231
H          0.99750        2.96482       -0.93752
H         -0.66713        2.44842       -1.29639
H          4.66840       -0.67947       -1.04274
H          3.02354       -1.35672       -1.19860
H          3.20338        0.87173       -2.36660
H          2.04143        0.89425       -1.03961
H          4.68017        2.14382       -1.04009
H          3.25956        2.71301       -0.46284
H          3.84687       -1.40780        1.09803
H          3.94001        0.28394        1.05524
C          3.61334       -0.53274       -0.79569
C          3.10721        0.82130       -1.27590
N          3.47668       -0.55302        0.68690
N          3.82639        1.87861       -0.56121
