35
1sa1msa1ma1eda_169.log	Energy: -1035887.7257883
S         -0.19374       -1.90430        0.04526
O          0.37730       -1.01868       -1.03309
O         -1.19276       -2.84022       -0.45321
O          0.92316       -2.49939        0.81590
O         -0.92429       -0.90917        1.05350
H         -1.94778       -0.93641        0.86624
S          1.29088        2.17087       -0.04637
O          1.49785        3.53494       -0.47409
O          2.47482        1.30329        0.09181
O          0.27251        1.49288       -1.03944
H          0.29989        0.46158       -1.01075
C          0.43010        2.14838        1.50839
H          1.11307        2.54756        2.25919
H         -0.45254        2.78281        1.41026
H          0.15284        1.11492        1.72861
N          3.04862       -1.34665       -0.34008
H          2.32952       -1.88726        0.21381
H          2.81764       -1.52584       -1.31668
C          4.44443       -1.68382        0.00098
H          5.12411       -1.07736       -0.59736
H          4.60426       -1.47342        1.05782
H          4.62023       -2.74236       -0.18938
H          2.83162       -0.34235       -0.17607
H         -4.69220        1.32676        0.44488
H         -4.15902        1.83756       -1.14647
H         -4.71112       -0.52598       -1.22392
H         -2.96826       -0.33493       -1.47046
H         -4.17597       -1.09358        1.10017
H         -3.34654       -2.07737        0.07427
H         -2.40586        1.28086        1.13811
H         -1.89263        1.74160       -0.33970
C         -3.87451        1.22934       -0.28146
C         -3.77313       -0.22985       -0.73464
N         -2.67357        1.79967        0.30883
N         -3.44442       -1.11522        0.39478
