36
1sa1msa1ma1tma_93.log	Energy: -1025810.9270913
S          0.38578       -1.49832       -0.72000
O          0.45137       -0.72522        0.59350
O         -0.18497       -0.63916       -1.76342
O          1.67104       -2.12015       -1.00649
O         -0.62804       -2.69151       -0.43738
H         -1.48580       -2.30065       -0.14902
S         -2.91491        0.21149        0.58865
O         -3.98598        0.75798        1.39025
O         -2.79530       -1.24437        0.45436
O         -1.54584        0.77747        1.16100
H         -0.77510        0.14877        0.95123
C         -2.98158        0.90880       -1.04621
H         -3.91456        0.56991       -1.49831
H         -2.97352        1.99478       -0.95029
H         -2.11862        0.53936       -1.60399
N          0.67775        2.18778       -0.67496
H          0.41429        1.35892       -1.20735
C          0.69682        3.36170       -1.54766
H         -0.25696        3.56344       -2.05565
H          0.96479        4.25023       -0.96798
H          1.46178        3.23015       -2.31918
H         -0.04353        2.28921        0.03395
N          2.95160        0.25443        0.78643
C          3.53892       -0.94752        1.43101
H          3.03501       -1.11528        2.38309
H          3.36507       -1.80009        0.77353
H          4.60676       -0.78338        1.59065
C          3.54598        0.50332       -0.55296
H          3.37688       -0.38145       -1.16753
H          3.03590        1.36380       -0.98553
H          4.61420        0.69812       -0.43220
C          3.01510        1.45802        1.64824
H          2.49194        2.26158        1.12802
H          2.51695        1.24102        2.59396
H          4.06139        1.71594        1.82735
H          1.93411        0.02320        0.64716
