32
1sa1msa1a1eda_304.log	Energy: -1011219.5311857
S          0.41766       -0.98353        0.66667
O         -0.87987       -1.57799        1.04470
O          1.55032       -1.90361        0.64531
O          0.27111       -0.50807       -0.86818
O          0.70659        0.25860        1.44333
H         -0.58367       -0.02318       -0.97216
H          2.24047        0.52822        1.51072
S         -3.36405        0.34535       -0.33386
O         -4.19456       -0.51427       -1.15291
O         -2.08902        0.81231       -0.90265
O         -3.09285       -0.28818        1.08297
H         -2.21448       -0.80252        1.10114
C         -4.30039        1.77305        0.15445
H         -4.57211        2.30028       -0.76044
H         -5.19197        1.42918        0.67847
H         -3.67792        2.39472        0.79667
N          2.86287       -1.81467       -2.15159
H          2.47009       -2.27827       -1.33412
H          3.19702       -2.53163       -2.78687
H          2.07458       -1.35607       -2.59872
H          4.98639        0.37674        0.30244
H          3.61673       -0.73992        0.01637
H          3.84158        0.93985       -1.82739
H          2.29500        1.03870       -0.99744
H          4.48326        2.95906       -0.78749
H          2.87220        3.22442       -0.84226
H          3.72477        0.30497        2.30677
H          3.40529        1.76351        1.52564
C          3.89981        0.29365        0.20768
C          3.36783        1.21681       -0.88109
N          3.29392        0.74085        1.49546
N          3.58575        2.60975       -0.47005
