38
1sa1msa1dma1eda_156.log	Energy: -1060550.4389138
S          2.56302       -0.46668       -0.25038
O          1.60476       -1.39415       -0.91698
O          2.72481        0.77966       -1.00497
O          2.30812       -0.30779        1.18678
O          3.99411       -1.22803       -0.27886
H          4.27255       -1.30995       -1.20124
S         -1.63623       -1.80995        0.13032
O         -1.93550       -1.42188       -1.24499
O         -1.67699       -0.73734        1.12849
O         -0.28688       -2.59722        0.21874
H          0.50681       -2.09657       -0.21477
C         -2.74727       -3.09844        0.63838
H         -3.74710       -2.66396        0.65576
H         -2.68805       -3.90762       -0.08867
H         -2.45303       -3.43592        1.63176
N          0.37426        1.68964        1.34967
C          1.16721        2.90396        1.06185
C         -0.55185        1.83487        2.48933
H         -0.12101        1.43733        0.44051
H          1.74703        3.17909        1.94462
H          1.84168        2.68115        0.23374
H          0.48208        3.71101        0.79670
H          0.01734        2.11154        3.37938
H         -1.28427        2.60347        2.24106
H         -1.05711        0.88309        2.64334
H          1.03075        0.90183        1.50278
H         -3.01241        1.31030       -1.90216
H         -3.12980        3.06954       -1.75829
H         -1.10032        2.38403       -2.96503
H         -0.72306        3.28214       -1.48359
H         -0.69231        0.34260       -1.61576
H          0.64641        1.28001       -1.67278
H         -3.61207        2.30970        0.34771
H         -2.43979        1.18074        0.36235
C         -2.57272        2.19281       -1.41228
C         -1.12553        2.33663       -1.86658
N         -2.66091        2.12452        0.04814
N         -0.31216        1.24406       -1.33016
