38
1sa1msa1dma1eda_69.log	Energy: -1060564.1363913
S          1.21708       -1.84140       -0.42785
O          1.39657       -0.70417       -1.56377
O          0.37872       -2.90540       -0.99604
O          2.61178       -2.17524       -0.10773
O          0.54076       -1.14718        0.70973
H          2.96921       -0.43473        0.47417
H         -1.20094       -1.16948        0.40472
S         -0.64750        1.85724       -0.35430
O          0.77515        2.10106       -0.00312
O         -1.52225        1.58502        0.80304
O         -0.79535        0.82040       -1.42767
H          0.57201       -0.15349       -1.62387
C         -1.22326        3.37896       -1.08862
H         -0.59623        3.60420       -1.95133
H         -2.26005        3.23608       -1.39482
H         -1.14742        4.16563       -0.33759
N          2.89127        0.56122        0.75614
C          3.98686        1.33946        0.14630
C          2.80438        0.64153        2.22917
H          1.98685        0.92030        0.37418
H          4.94337        0.99724        0.54458
H          3.95322        1.18423       -0.93187
H          3.83796        2.39614        0.37123
H          3.72859        0.26467        2.67013
H          2.64003        1.68105        2.51501
H          1.95683        0.03000        2.53791
H         -3.86335       -2.40104       -0.17989
H         -2.81675       -2.77520        1.21564
H         -4.69726       -1.20612        1.79386
H         -3.11024       -0.48736        2.08690
H         -5.05905        0.60800        0.50700
H         -3.45565        1.01498        0.47764
H         -1.52510       -2.21096       -0.78351
H         -2.22090       -0.68402       -0.80131
C         -3.15784       -1.98498        0.54283
C         -3.79792       -0.82468        1.30088
N         -1.98393       -1.49008       -0.20837
N         -4.12229        0.25298        0.37319
