28
1sa1msa1eda_20.log	Energy: -975733.6864267
S          1.08895        1.72232        0.00113
O          0.58142        0.72002        1.01315
O          2.04242        2.66504        0.53054
O          1.50965        0.98029       -1.21762
O         -0.19886        2.58430       -0.41662
H          1.12973       -0.57906       -1.21929
H         -0.86462        1.99100       -0.82298
S         -2.26370       -0.42950       -0.03378
O         -1.67203       -1.75022       -0.25155
O         -2.03487        0.55761       -1.09506
O         -1.82412        0.15844        1.34737
H         -0.82699        0.45799        1.28499
C         -4.00498       -0.61125        0.23687
H         -4.42528       -1.02695       -0.67928
H         -4.15079       -1.29261        1.07460
H         -4.42429        0.37227        0.44605
H          2.26775       -3.31713       -0.88849
H          3.03783       -1.93744       -1.72564
H          3.82875       -2.24737        0.67239
H          3.14190       -0.65685        0.34903
H          2.22209       -2.48043        2.25190
H          1.50614       -1.05869        1.80121
H          0.57549       -1.99629       -1.96521
H          0.42965       -1.83445       -0.33185
C          2.38183       -2.23058       -0.90315
C          2.89751       -1.71998        0.44497
N          1.04245       -1.63503       -1.13655
N          1.88235       -1.94099        1.46816
