38
1sa1msa1dma1eda_224.log	Energy: -1060545.0043869
S         -0.32552       -1.46927       -0.63851
O          0.91349       -2.26833       -0.77895
O         -1.56489       -2.23152       -0.70685
O         -0.31338       -0.90371        0.88832
O         -0.29756       -0.25611       -1.49460
H          0.55888       -0.46793        1.03234
H         -1.47033        0.83297       -1.00625
S          3.37367       -0.10426        0.42654
O          4.26185       -0.59236        1.46078
O          2.05406        0.40755        0.84123
O          3.18947       -1.16491       -0.71190
H          2.25545       -1.59923       -0.73978
C          4.19150        1.19300       -0.47243
H          4.40694        1.99131        0.23834
H          5.11533        0.78652       -0.88392
H          3.52756        1.53495       -1.26576
N         -3.84197       -0.59451        0.31196
C         -5.24502       -0.65801       -0.08604
C         -3.64992       -0.76133        1.75376
H         -3.30777       -1.32838       -0.15952
H         -5.79122        0.17955        0.36091
H         -5.32517       -0.57955       -1.17330
H         -5.73185       -1.59078        0.23295
H         -4.06401        0.10405        2.28346
H         -4.14086       -1.66605        2.13910
H         -2.58024       -0.83441        1.96247
H         -2.29676        2.69239        1.15804
H         -1.18172        1.31379        1.31314
H          0.09935        3.43635        1.00672
H          0.35050        2.31310       -0.32874
H         -1.23952        4.76604       -0.40994
H         -0.18877        4.17851       -1.51577
H         -2.96137        0.75224       -0.21422
H         -2.49540        2.15051       -1.17188
C         -1.53836        2.09564        0.64192
C         -0.39000        2.96476        0.14527
N         -2.18109        1.43359       -0.51613
N         -0.90023        3.91539       -0.84525
