41
1sa1msa1tma1eda_228.log	Energy: -1085193.6881451
S          2.13484       -1.20978       -0.26774
O          3.39547       -1.30153       -0.99146
O          1.27642       -2.40825       -0.30578
O          2.31559       -0.71323        1.13549
O          1.33207       -0.03739       -1.02836
H          3.49157        0.21412        1.28326
H          0.39462       -0.02989       -0.71329
S         -1.97550       -1.40509        0.08983
O         -2.63852       -1.88555       -1.10720
O         -1.17934       -0.16767       -0.03459
O         -1.07203       -2.52312        0.74045
H         -0.13528       -2.50903        0.35026
C         -3.16327       -1.16848        1.37933
H         -3.82874       -0.36674        1.03167
H         -3.69824       -2.10823        1.51684
H         -2.63203       -0.87938        2.28578
H          5.99363        1.56993        0.27660
H          5.15452        0.13203       -0.39970
H          4.64959        2.24405       -1.69612
H          3.21779        1.47083       -1.02014
H          4.44136        3.94706       -0.08384
H          2.86010        3.54665       -0.21821
H          4.95940        0.52548        2.10287
H          3.97790        1.81680        1.66799
C          5.02433        1.10186        0.08102
C          4.13101        2.01188       -0.75918
N          4.33824        0.89368        1.38702
N          3.77469        3.19241        0.03367
N         -4.42972        1.55580        0.02978
C         -4.21223        1.33760       -1.39320
H         -3.21351        0.92658       -1.55732
H         -4.94051        0.61583       -1.77306
H         -4.30859        2.27437       -1.97481
C         -5.76441        2.06682        0.28482
H         -6.51008        1.36340       -0.09749
H         -5.92136        2.18101        1.36193
H         -5.93900        3.04951       -0.19465
C         -3.40976        2.43091        0.58471
H         -3.57220        2.55314        1.66057
H         -2.42415        1.98235        0.43164
H         -3.42009        3.43517        0.11907
