41
1sa1msa1tma1eda_126.log	Energy: -1085206.8742024
S          0.85988       -0.66896       -0.58887
O          1.65413        0.27875       -1.39203
O          0.45187       -0.06795        0.71722
O         -0.30582       -1.20020       -1.33853
O          1.74253       -1.92415       -0.24630
H          2.46179       -1.65918        0.45754
S         -3.39123       -0.71028        0.15115
O         -3.70137        0.07220       -1.04311
O         -2.90828        0.04452        1.30696
O         -2.43330       -1.90214       -0.18781
H         -1.54762       -1.60712       -0.63253
C         -4.82439       -1.64423        0.63222
H         -5.58917       -0.92317        0.92177
H         -5.15216       -2.23652       -0.22143
H         -4.55346       -2.28083        1.47405
H          5.62290       -0.69659        1.63482
H          5.20878       -2.19508        0.77000
H          5.95181       -0.33499       -0.74812
H          4.34329       -0.95861       -1.12729
H          4.95568        1.66508       -0.58754
H          3.45194        0.99887       -0.68416
H          3.49111       -1.62823        2.37158
H          3.27790       -0.17197        1.64511
C          4.90921       -1.15539        0.93707
C          4.91950       -0.39113       -0.38648
N          3.54437       -1.14287        1.48173
N          4.35080        0.94820       -0.20944
N         -0.58398        2.32778        0.18851
C         -1.52502        2.87681        1.19290
H         -2.40439        2.23381        1.22565
H         -1.03706        2.87032        2.16824
H         -1.78902        3.89946        0.91256
C          0.70413        3.06281        0.15792
H          1.15605        3.02349        1.14943
H          1.35889        2.56377       -0.55719
H          0.51985        4.09927       -0.13433
C         -1.19482        2.25479       -1.16693
H         -0.48443        1.76860       -1.83686
H         -2.11257        1.66668       -1.11771
H         -1.40882        3.27082       -1.50795
H         -0.32779        1.33793        0.47097
