40
1sa1msa2eda_214.log	Energy: -1095280.0123292
S         -0.98796       -1.66788       -0.82583
O         -0.88171       -0.31141       -1.44227
O         -2.06873       -2.46253       -1.38916
O          0.33626       -2.32774       -0.72936
O         -1.34526       -1.39649        0.72800
H          1.08370       -1.76667        0.59471
H         -2.34445       -1.16441        0.76499
S          1.41904        2.00806       -0.29430
O          2.73535        2.60808       -0.40639
O          1.05172        1.34462        0.96814
O          1.27236        0.98696       -1.48119
H          0.40026        0.43350       -1.44134
C          0.17570        3.23134       -0.62511
H          0.30583        4.02235        0.11512
H          0.34341        3.61566       -1.63116
H         -0.80633        2.76247       -0.50582
H          3.42838       -1.64611        2.43538
H          2.74692       -3.12398        1.70742
H          4.69357       -2.26826        0.37108
H          3.19300       -2.25010       -0.55856
H          4.61178        0.09682        0.41736
H          3.62398       -0.06629       -0.89506
H          0.99901       -1.50164        2.24058
H          1.71584       -0.36230        1.25875
C          2.91763       -2.05500        1.55962
C          3.71400       -1.78058        0.28171
N          1.60392       -1.38174        1.43126
N          3.77631       -0.34846        0.06364
H         -3.96445        1.21055        2.17501
H         -4.10538        2.55055        1.03488
H         -5.21270        0.79731       -0.05016
H         -3.61076        0.80126       -0.81402
H         -4.52219       -1.06769        1.25690
H         -4.06553       -1.41207       -0.28060
H         -1.82282        2.27315        1.88611
H         -1.68187        0.87558        1.05887
C         -3.62835        1.57618        1.18802
C         -4.14435        0.61516        0.12253
N         -2.18423        1.75898        1.09029
N         -3.89801       -0.78694        0.50607
