32
1sa1msa1a1eda_270.log	Energy: -1011225.4033691
S         -0.32937       -1.87129       -0.31306
O         -0.28023       -0.72062       -1.27096
O         -1.41497       -2.81069       -0.61503
O          1.01045       -2.69797       -0.53210
O         -0.34794       -1.37966        1.08365
H          1.77158       -2.07416       -0.46535
H         -2.47496       -1.55610        1.85893
S          2.60409        0.71011        0.07825
O          3.64393        1.69558       -0.11352
O          2.86420       -0.68482       -0.29504
O          1.31324        1.20887       -0.69239
H          0.71129        0.42999       -0.94672
C          2.08272        0.72428        1.77937
H          1.79804        1.74475        2.03675
H          1.24832        0.02629        1.87921
H          2.93667        0.40255        2.37704
N         -3.18374       -1.57915        1.12351
H         -2.84352       -2.29558        0.45668
H         -3.12270       -0.58023        0.56075
H         -4.10115       -1.80439        1.49474
H         -2.55712        1.83786        1.48482
H         -1.06262        1.05228        0.95143
H         -0.95764        3.48282        0.48871
H         -0.95572        2.56720       -1.01400
H         -3.22631        4.06146        0.07120
H         -2.58902        4.11288       -1.43138
H         -3.46957        1.18432       -0.69053
H         -2.12059        0.27910       -0.95597
C         -1.95637        1.57689        0.60379
C         -1.57707        2.84415       -0.15704
N         -2.73878        0.64484       -0.22544
N         -2.78973        3.49866       -0.65137
