32
1sa1msa1a1eda_233.log	Energy: -1011225.2988386
S         -1.96247       -1.04978       -0.19205
O         -0.82091       -1.20797       -1.07490
O         -2.80041       -2.18771        0.12745
O         -1.48471       -0.45831        1.18698
O         -2.84502        0.10140       -0.80597
H         -0.78099        0.27107        1.06495
H         -3.76515        0.09602       -0.34072
S          0.95273        2.18114        0.01660
O          1.01304        3.55976        0.48012
O          0.39835        1.22243        1.04837
O          2.25696        1.62668       -0.48058
H          2.62519        0.35155        0.36788
C         -0.15983        2.10860       -1.37338
H         -1.14067        2.45154       -1.04288
H          0.23844        2.77266       -2.14104
H         -0.21738        1.07965       -1.72986
N         -5.12961       -0.15370        0.47520
H         -5.16080        0.33608        1.36379
H         -5.06852       -1.15121        0.66799
H         -5.99659        0.02712       -0.01967
H          1.87691       -2.48946        0.91340
H          1.22949       -1.40950       -0.33779
H          2.95037       -2.97031       -1.29442
H          3.46468       -1.28587       -1.41220
H          4.49549       -3.26062        0.48202
H          5.31847       -2.20539       -0.45652
H          1.90435       -0.23927        1.71238
H          3.50537       -0.72102        1.39333
C          2.12957       -1.68725        0.21422
C          3.26846       -2.10008       -0.70758
N          2.58389       -0.51247        0.99897
N          4.47565       -2.32418        0.09230
