40
1sa1msa2eda_65.log	Energy: -1095295.7062344
S          2.12969        1.49484       -0.12862
O          2.05655        0.76375       -1.41302
O          1.85193        2.92426       -0.22605
O          1.39403        0.77824        0.94046
O          3.67489        1.35035        0.38402
H          4.20827        1.99220       -0.10378
S         -2.26998       -1.69086       -0.01824
O         -3.09036       -0.44880        0.01613
O         -1.19104       -1.64627        1.00489
O         -1.74672       -2.01761       -1.36992
C         -3.36792       -3.02187        0.43125
H         -3.77132       -2.81386        1.42224
H         -4.16606       -3.06481       -0.31006
H         -2.79602       -3.94996        0.43487
H          1.67186       -3.66987       -0.41861
H          2.41153       -2.84538       -1.82003
H          3.96921       -3.02525        0.12267
H          3.66567       -1.34475       -0.32870
H          3.43852       -2.18043        2.15425
H          2.37411       -1.07428        1.58981
H          0.13690       -2.01495       -1.33018
H          0.57745       -1.62656        0.17283
C          2.07371       -2.72405       -0.78797
C          3.20683       -2.24066        0.11344
N          0.96742       -1.73889       -0.77902
N          2.71168       -2.02672        1.46756
H          1.30126       -0.80810       -1.10267
H         -0.51513        2.84890       -0.55180
H         -1.27258        1.39938       -1.25409
H         -2.73899        3.41335       -1.57161
H         -3.50816        2.17309       -0.57027
H         -2.30622        4.66012        0.41828
H         -3.79953        4.05784        0.71517
H         -0.36721        1.15381        1.05081
H         -1.62342        2.19171        1.53815
C         -1.36878        2.16980       -0.48739
C         -2.69673        2.90628       -0.59949
N         -1.32143        1.50361        0.84114
N         -2.83346        3.80318        0.55033
H         -1.99200        0.70731        0.82116
