32
1sa1msa1a1eda_37.log	Energy: -1011240.8891356
S          2.78162       -0.54630        0.00401
O          3.14389        0.83257       -0.31914
O          1.65778       -0.63240        0.97866
O          2.56944       -1.45886       -1.13426
O          4.06971       -1.20385        0.74593
H          4.44860       -0.53617        1.33279
S         -2.61919       -0.77098        0.16230
O         -2.58673        0.56315        0.82013
O         -2.13038       -1.87498        1.01162
O         -1.91463       -0.74744       -1.16257
C         -4.33792       -1.08472       -0.19113
H         -4.87877       -1.08573        0.75537
H         -4.70406       -0.29341       -0.84518
H         -4.41557       -2.05615       -0.67945
N          0.09605       -2.53030       -0.69268
H         -0.08124       -3.47941       -1.00763
H         -0.02457       -2.47485        0.32273
H          1.06249       -2.21157       -0.94367
H         -0.63076       -1.87649       -1.07477
H          1.10361        2.00437       -0.87338
H         -0.43402        1.15840       -1.20636
H         -0.58747        3.59549       -1.81697
H         -1.72794        3.14372       -0.54224
H          0.78368        4.60195       -0.13435
H         -0.72517        5.01272        0.35128
H          0.63149        0.75921        1.01666
H          0.17463        2.36147        1.38323
C          0.04455        1.93944       -0.61161
C         -0.66552        3.27699       -0.76954
N         -0.03645        1.53397        0.81667
N         -0.10323        4.23010        0.18969
H         -1.00757        1.20079        1.01589
