38
1sa1msa1dma1eda_334.log	Energy: -1060542.4787303
S          0.24394       -1.83622        0.06361
O          1.56925       -2.29846       -0.41019
O         -0.77408       -2.85372        0.22447
O          0.49389       -1.27420        1.57370
O         -0.20256       -0.63772       -0.70891
H          1.23786       -0.63874        1.53787
H         -0.65227        0.62215        0.23533
S          3.14277        0.78107       -0.18993
O          4.32800        1.59332       -0.05304
O          2.11996        0.86793        0.87813
O          3.58081       -0.71508       -0.34804
H          2.78774       -1.36111       -0.37578
C          2.32430        1.14480       -1.72720
H          2.05029        2.20102       -1.70500
H          3.03330        0.95578       -2.53328
H          1.44266        0.50263       -1.80135
N         -0.69957        1.49949        0.81588
C         -1.48117        1.22813        2.04796
C         -1.23980        2.59629       -0.02103
H          0.28813        1.67020        1.03943
H         -2.42496        0.76763        1.74812
H         -0.92278        0.51909        2.65765
H         -1.63992        2.16401        2.58600
H         -2.29278        2.38244       -0.23753
H         -1.14721        3.54041        0.51899
H         -0.66347        2.64074       -0.94634
H         -5.60798       -0.02407       -1.02943
H         -4.62976        0.87040       -2.19800
H         -3.69245       -1.35888       -1.76242
H         -2.56089       -0.09356       -1.29549
H         -4.24234       -1.57772        0.58338
H         -2.62801       -1.66076        0.43033
H         -5.18693        2.26476       -0.32772
H         -4.45906        1.22333        0.70226
C         -4.63608        0.47676       -1.17627
C         -3.52011       -0.55080       -1.03590
N         -4.43336        1.59025       -0.24513
N         -3.42158       -1.02616        0.34635
