40
1sa1msa2eda_60.log	Energy: -1095295.1079982
S          2.88248       -1.15224        0.11749
O          2.31553       -2.39854        0.68367
O          2.09927       -0.72100       -1.07411
O          3.13914       -0.06989        1.05707
O          4.35741       -1.56136       -0.42519
H          4.27853       -2.38708       -0.92099
S         -2.41944        0.92424        0.03252
O         -3.11676       -0.13386       -0.71724
O         -2.08528        2.14081       -0.72455
O         -1.19179        0.38403        0.73863
C         -3.51484        1.41854        1.35503
H         -4.41501        1.83699        0.90393
H         -3.75853        0.53862        1.95113
H         -3.00668        2.16598        1.96455
H          1.81523        2.99456       -1.69784
H          0.08018        2.58515       -1.83319
H          0.38337        4.92270       -1.01822
H         -0.44463        3.89366        0.15202
H          2.35175        4.77395        0.33122
H          1.17993        4.84563        1.47214
H          1.52136        0.87262       -0.69355
H          1.71956        1.98311        0.53603
C          0.88406        2.84395       -1.14410
C          0.51963        4.07821       -0.32959
N          1.09535        1.70118       -0.22749
N          1.53510        4.29788        0.69866
H          0.20382        1.36120        0.18987
H         -0.79116       -4.21215        0.50278
H         -1.22051       -3.11009        1.82966
H         -3.22452       -4.01470        0.47857
H         -3.14481       -2.25236        0.60116
H         -3.06701       -3.73475       -1.77107
H         -2.95570       -2.09483       -1.56564
H          0.61984       -2.32220        0.34532
H         -0.53146       -2.26773       -0.88943
C         -1.23885       -3.24561        0.74642
C         -2.65452       -3.13161        0.17226
N         -0.39292       -2.20201        0.12592
N         -2.58347       -2.99598       -1.27983
H         -0.69365       -1.24009        0.40425
