30
1sa1msa1a1dma_50.log	Energy: -976496.9066658
S         -2.27724       -0.76352       -0.04743
O         -2.20433       -1.02186        1.39376
O         -3.22104        0.27020       -0.45882
O         -0.93150       -0.56787       -0.67697
O         -2.73644       -2.16420       -0.73949
H         -3.51986       -2.48230       -0.27077
S          2.27383       -0.68487       -0.06315
O          2.40529       -0.13227        1.28361
O          2.06094        0.28753       -1.13984
O          1.16885       -1.78927       -0.11442
H          0.24159       -1.36523       -0.32746
C          3.71047       -1.66047       -0.42683
H          4.56813       -0.98782       -0.40104
H          3.80033       -2.43071        0.33892
H          3.58581       -2.09992       -1.41578
N         -0.27226        1.13730        2.21460
H          0.63037        0.67310        2.31459
H         -0.98578        0.40404        2.18822
H         -0.43276        1.70178        3.04216
N         -0.00413        2.19055       -0.32025
C         -1.21717        2.80510       -0.90165
C          1.15983        3.09481       -0.23805
H         -0.20561        1.82386        0.67227
H         -0.99629        3.15673       -1.91122
H         -2.01294        2.05868       -0.92496
H         -1.51607        3.64810       -0.27587
H          1.45322        3.40880       -1.24081
H          0.88669        3.96598        0.36043
H          1.98368        2.55780        0.23065
H          0.25581        1.35166       -0.85405
