33
1sa1msa1ma1dma_75.log	Energy: -1001154.2877241
S          1.13540        1.67752       -0.11146
O          1.79679        2.72298        0.65180
O          1.93118        1.02092       -1.15457
O          0.41375        0.65650        0.71118
O         -0.11428        2.41576       -0.88613
H          0.10245        3.35586       -0.94065
S         -2.79674       -0.29826        0.27080
O         -4.04207       -0.80514        0.80517
O         -1.83580       -1.23563       -0.31482
O         -2.08071        0.51172        1.42981
H         -1.11354        0.65896        1.20698
C         -3.13525        0.95838       -0.94193
H         -3.61119        0.46803       -1.79199
H         -3.80970        1.68620       -0.49074
H         -2.19001        1.42251       -1.22808
N          3.62714       -1.08487        0.05911
H          4.48147       -1.54884       -0.23089
C          3.67755       -0.74364        1.48834
H          4.50069       -0.06862        1.74749
H          2.74018       -0.25618        1.76937
H          3.77714       -1.65978        2.07676
H          3.52992       -0.23236       -0.49321
N          0.99564       -1.86774       -0.43678
C          0.74490       -1.97049       -1.88953
C          0.58141       -3.05268        0.33974
H          2.02956       -1.67464       -0.27812
H         -0.32307       -2.11296       -2.05347
H          1.07665       -1.03943       -2.34992
H          1.31025       -2.81460       -2.28958
H         -0.48995       -3.20443        0.21033
H          1.14058       -3.92293       -0.00925
H          0.79928       -2.87270        1.39312
H          0.50864       -1.03038       -0.07307
