33
1sa1msa1ma1dma_98.log	Energy: -1001151.9565641
S         -2.00456       -1.06920       -0.07957
O         -2.62990       -0.84150       -1.37760
O         -1.12726       -2.27844       -0.05128
O         -1.35535        0.09351        0.53497
O         -3.20965       -1.40254        0.96677
H         -3.77158       -2.07918        0.56586
S          2.03702       -0.92558        0.08581
O          2.40903        0.14054        1.00837
O          1.39734       -0.49961       -1.16881
O          1.17720       -2.00681        0.79504
H          0.18480       -2.09190        0.43102
C          3.49518       -1.85485       -0.32503
H          3.90837       -2.26313        0.59724
H          3.21045       -2.65066       -1.01264
H          4.20106       -1.16761       -0.79211
N         -0.89113        2.71606        1.47400
H         -1.39194        3.56555        1.71229
C          0.21859        2.47828        2.40881
H         -0.10652        2.37917        3.45105
H          0.73589        1.56016        2.11974
H          0.93301        3.30397        2.34468
H         -1.54734        1.93773        1.52254
N          0.06846        1.97597       -1.02832
C         -0.95762        2.08442       -2.08586
C          1.30894        2.72908       -1.28830
H         -0.34246        2.30082       -0.09870
H         -0.53229        1.75121       -3.03401
H         -1.79578        1.43816       -1.82141
H         -1.28026        3.12429       -2.16698
H          1.75292        2.38615       -2.22400
H          1.07988        3.79468       -1.35103
H          2.00266        2.53981       -0.46799
H          0.31675        0.98020       -0.91256
