33
1sa1msa1a1tma_43.log	Energy: -1001152.1217497
S         -0.84949        0.14400       -0.06862
O          0.30616       -0.10595       -0.96396
O         -1.31306       -1.01315        0.70340
O         -0.39674        1.22723        0.97692
O         -1.98053        0.74847       -0.85521
H          0.30416        1.88106        0.55469
H         -3.26152        0.12207       -0.39561
S          3.60205       -0.35939        0.09814
O          3.52206       -0.26000        1.54537
O          3.61724        0.89118       -0.66580
O          2.49135       -1.32120       -0.47254
H          1.60032       -0.84567       -0.61570
C          5.03616       -1.31347       -0.34197
H          5.90443       -0.76807        0.02877
H          4.95874       -2.28652        0.14250
H          5.07136       -1.41324       -1.42614
N          1.37389        2.79350       -0.10505
H          1.02863        3.16143       -0.98613
H          2.18900        2.21024       -0.31387
H          1.68168        3.57398        0.46579
N         -4.19815       -0.30442       -0.04304
C         -5.28528        0.40892       -0.74532
H         -5.20813        1.47392       -0.52387
H         -5.17060        0.25724       -1.81906
H         -6.25388        0.02566       -0.41407
C         -4.16963       -1.74942       -0.37097
H         -4.08287       -1.86112       -1.45243
H         -3.29066       -2.18313        0.10600
H         -5.08913       -2.22180       -0.01537
C         -4.23488       -0.07693        1.42214
H         -3.36326       -0.56427        1.85959
H         -4.17560        0.99598        1.60888
H         -5.16379       -0.48245        1.83170
