41
1sa1msa1tma1eda_92.log	Energy: -1085211.9450688
S          0.24599       -1.53822       -0.85481
O         -0.82840       -2.46124       -1.21920
O          0.68637       -0.58644       -1.88125
O         -0.16617       -0.77777        0.41377
O          1.48156       -2.40584       -0.42926
H          2.37291       -1.84710       -0.52238
S         -0.73853        2.56809       -0.14627
O         -0.68183        3.91985        0.37180
O         -2.02348        1.86267       -0.15042
O          0.30835        1.70697        0.66921
H          0.14275        0.70662        0.53943
C         -0.09105        2.53215       -1.80163
H         -0.80028        3.06408       -2.43696
H          0.87235        3.04257       -1.79259
H          0.02057        1.48704       -2.10207
H          4.20614        1.04368       -0.33754
H          2.47289        0.75077       -0.58378
H          2.90448        1.24158        1.78344
H          2.34588       -0.42176        1.59035
H          5.10234        0.39940        2.13052
H          4.19219       -0.70709        2.91470
H          3.87995       -0.94845       -1.63944
H          4.41228       -1.39560       -0.13777
C          3.37752        0.35578       -0.11560
C          3.18310        0.25501        1.39159
N          3.63408       -0.98886       -0.65531
N          4.38940       -0.31135        2.00347
N         -2.81088       -1.15041        0.75536
C         -3.28436       -0.23910        1.82551
H         -2.69929       -0.42470        2.72723
H         -3.13481        0.78754        1.49119
H         -4.34121       -0.43633        2.02001
C         -3.51696       -0.91078       -0.53107
H         -3.36441        0.13141       -0.80943
H         -3.07536       -1.56657       -1.28129
H         -4.57949       -1.12622       -0.39413
C         -2.88251       -2.57613        1.15997
H         -2.43212       -3.17419        0.36793
H         -2.31560       -2.70696        2.08233
H         -3.92827       -2.84903        1.31980
H         -1.78703       -0.94167        0.59326
