32
1sa1msa1a1eda_98.log	Energy: -1011236.6017336
S          2.90616       -0.22850        0.06322
O          2.90715       -1.10720        1.23925
O          1.92154       -0.67193       -0.96897
O          2.80282        1.20576        0.34198
O          4.32050       -0.46277       -0.70601
H          5.02807       -0.13892       -0.13209
S         -2.44687       -0.96705       -0.19710
O         -2.14223       -2.35142       -0.59872
O         -2.32759        0.03842       -1.28680
O         -1.63061       -0.54334        0.99430
C         -4.15074       -0.93045        0.32495
H         -4.39219        0.08089        0.65279
H         -4.76655       -1.21482       -0.52863
H         -4.27234       -1.64308        1.14074
N          0.42890       -2.36294        0.57649
H          1.13859       -2.67164        1.23971
H         -0.15039       -3.11004        0.19276
H         -0.22898       -1.68101        1.00788
H          0.93565       -1.85624       -0.18697
H          0.65546        3.34185       -0.35725
H         -0.40013        3.15617       -1.79055
H         -1.56193        4.21727        0.22665
H         -2.35609        2.75945       -0.37863
H         -1.53750        3.11813        2.20135
H         -1.70208        1.61466        1.52591
H          0.87644        1.08141       -1.18221
H          0.11429        1.12653        0.26482
C         -0.23626        2.85353       -0.75429
C         -1.45646        3.13377        0.12713
N          0.01533        1.39486       -0.72172
N         -1.25562        2.52332        1.43574
H         -0.80131        0.86023       -1.09466
