32
1sa1msa1a1eda_321.log	Energy: -1011210.1884168
S          1.78531       -0.99597        0.25764
O          0.72189       -0.91441        1.26180
O          2.86768       -1.93462        0.43596
O          1.12597       -1.31690       -1.13695
O          2.35095        0.44866        0.11208
H          0.18525       -0.98015       -1.18256
H          3.34194        0.41683       -0.25932
S         -2.45015       -1.01992       -0.24627
O         -3.41503       -1.91169       -0.84325
O         -1.36442       -0.47607       -1.08225
O         -1.79016       -1.77566        0.98687
H         -0.85631       -1.47632        1.13815
C         -3.27565        0.34935        0.51769
H         -3.80627        0.88052       -0.27448
H         -3.98283       -0.05467        1.24246
H         -2.51651        0.98717        0.98858
N          4.77511        0.21428       -0.72699
H          5.45468        0.80681       -0.26010
H          4.89914        0.31737       -1.72956
H          4.97255       -0.75377       -0.48120
H          0.21161        1.71664       -0.97059
H          0.65940        3.39690       -1.30283
H          1.29436        2.92725        0.95149
H         -0.12451        3.99485        1.01187
H         -0.05927        1.12734        1.56403
H         -0.60379        2.32773        2.51952
H         -1.62053        2.83698       -2.02357
H         -2.03342        2.64822       -0.45681
C         -0.02957        2.76377       -0.73202
C          0.21529        2.98635        0.75375
N         -1.39842        3.13544       -1.07998
N         -0.55008        2.01931        1.55447
