28
1sa1msa1eda_172.log	Energy: -975707.4100639
S         -2.24718       -0.71496       -0.08417
O         -1.25588        0.01582       -0.85993
O         -3.58342       -0.90152       -0.57252
O         -1.67659       -2.10680        0.32647
O         -2.30506        0.10064        1.30288
H         -0.68158       -2.06043        0.50147
H         -3.11519       -0.13636        1.77820
S          1.96118       -1.38174       -0.08385
O          2.90129       -2.35336       -0.58582
O          0.84297       -1.84175        0.76204
O          1.34285       -0.61629       -1.33611
H          0.42072       -0.31952       -1.15016
C          2.79415       -0.09592        0.79985
H          3.23942       -0.55319        1.68459
H          3.56568        0.30647        0.14272
H          2.03635        0.65516        1.06348
H          0.27349        4.14137        1.10196
H          1.89428        3.41319        1.12383
H          1.27354        4.10989       -1.12374
H          1.48011        2.35433       -1.05625
H         -0.60637        3.40698       -2.18197
H         -0.87108        2.12540       -1.20995
H          0.35198        2.07955        2.39080
H         -0.59184        1.84756        1.09425
C          0.85954        3.26423        0.79126
C          0.83542        3.18700       -0.73023
N          0.37029        2.01290        1.37787
N         -0.53563        3.08293       -1.22531
