26
1sa1msa1dma_40.log	Energy: -940995.7406859
S          0.82869        0.57975        0.17614
O         -0.36324        1.41638       -0.06077
O          1.89918        1.23382        0.95044
O          0.36567       -0.62106        1.13708
O          1.34592       -0.04860       -1.06670
H         -0.51097       -0.96274        0.83081
H          3.03906       -0.30226       -0.84276
S         -3.12838       -0.36272       -0.18512
O         -2.10124       -1.30543        0.27755
O         -4.37365       -0.89116       -0.69063
O         -2.51177        0.56439       -1.31273
H         -1.62448        0.90589       -1.00299
C         -3.43699        0.78299        1.14243
H         -3.83042        0.20856        1.98173
H         -2.49065        1.26100        1.40176
H         -4.16715        1.51399        0.79583
N          3.85793       -0.23880       -0.18917
C          5.08743        0.20523       -0.87196
C          3.96537       -1.51774        0.54907
H          3.48197        0.48944        0.45264
H          5.38420       -0.54569       -1.60521
H          4.88771        1.15164       -1.37414
H          5.88244        0.33754       -0.13660
H          4.22684       -2.31277       -0.15015
H          4.73197       -1.42825        1.31984
H          2.99713       -1.72658        1.00587
