33
1sa1msa1ma1dma_118.log	Energy: -1001151.9297380
S          1.26232        0.41800       -0.59069
O          2.36325        0.30632       -1.53875
O         -0.07307       -0.00559       -1.13033
O          1.52191       -0.59306        0.59697
O          1.11851        1.77859        0.00563
H          2.54998       -0.69641        0.76536
H         -0.44580        2.08648        0.16223
S         -2.89095       -0.90196        0.12049
O         -3.37861        0.01668       -0.90915
O         -2.56682       -0.26970        1.40740
O         -1.68773       -1.74617       -0.40329
H         -0.91543       -1.10820       -0.70104
C         -4.07709       -2.19120        0.38970
H         -4.97936       -1.71678        0.77601
H         -4.27097       -2.67903       -0.56500
H         -3.66530       -2.89169        1.11573
N         -1.50924        2.13243        0.19508
H         -1.84151        1.73602       -0.68947
C         -2.03091        3.49139        0.43281
H         -3.12059        3.46754        0.45008
H         -1.65281        3.85376        1.38841
H         -1.68639        4.15007       -0.36390
H         -1.82618        1.45748        0.90744
N          4.08620       -0.85818        0.92990
C          4.70378        0.46982        0.84052
C          4.53221       -1.76016       -0.13760
H          4.29890       -1.26953        1.83417
H          4.40383        0.92615       -0.10565
H          4.33560        1.09739        1.65523
H          5.80040        0.42054        0.88662
H          4.19509       -1.34950       -1.09238
H          5.62457       -1.87689       -0.15547
H          4.06799       -2.73948       -0.00053
