30
1sa1msa2ma_131.log	Energy: -976477.2597648
S         -1.98586       -0.22038       -0.51628
O         -0.86036        0.55604       -1.06797
O         -3.20058       -0.19929       -1.35268
O         -1.54869       -1.75179       -0.51038
O         -2.29151        0.15268        0.89663
H         -0.64197       -1.82527       -0.12141
H         -3.92173        0.25312        1.06974
S          2.06260       -0.80188        0.28364
O          3.00838       -1.26631       -0.71268
O          0.90859       -1.66087        0.58995
O          1.52809        0.64238       -0.09440
H          0.58759        0.60927       -0.46522
C          2.92037       -0.43768        1.78959
H          3.40226       -1.36275        2.10802
H          3.65254        0.34649        1.56153
H          2.18826       -0.10332        2.52415
N          4.43814        1.97725        0.18064
H          3.51024        2.07338       -0.22182
C          5.34393        1.33305       -0.77233
H          5.48817        1.88800       -1.71053
H          6.32256        1.19535       -0.30302
H          4.94824        0.34481       -1.01934
H          4.76259        2.90863        0.41642
N         -4.88761        0.34539        0.63746
H         -4.65630       -0.00525       -0.31698
C         -5.31383        1.76178        0.59213
H         -6.25474        1.84865        0.04952
H         -5.42781        2.14098        1.60718
H         -4.53594        2.32322        0.07556
H         -5.55972       -0.26332        1.09751
