27
1sa1msa1a1ma_54.log	Energy: -951833.6621527
S         -1.70748       -1.08570       -0.07170
O         -2.76651       -0.09124        0.04127
O         -0.98433       -1.17151       -1.34069
O         -0.75313       -1.00142        1.09374
O         -2.48073       -2.49609        0.12130
H         -1.89933       -3.20558       -0.18395
S          2.46394       -0.05582        0.00940
O          3.88111       -0.07403        0.29346
O          1.70737        1.17681        0.28188
O          1.80542       -1.24721        0.81238
H          0.79796       -1.17439        0.86655
C          2.17521       -0.48657       -1.68907
H          2.57774        0.32282       -2.29916
H          2.70347       -1.41908       -1.88801
H          1.09878       -0.60585       -1.83355
N         -0.50959        1.64985        1.86218
H         -0.56800        2.03351        2.80007
H         -1.13421        2.18915        1.15372
H          0.45950        1.65861        1.50528
H         -0.79346        0.65251        1.83960
N         -1.98799        2.71848       -0.16245
H         -2.67466        1.96706       -0.23268
C         -1.08580        2.65545       -1.32328
H         -1.60380        2.79862       -2.27763
H         -0.30589        3.41426       -1.22354
H         -0.60284        1.67583       -1.34069
H         -2.48570        3.60261       -0.14003
