35
1sa1msa1ma1eda_38.log	Energy: -1035900.1755699
S         -2.76910       -0.17566       -0.21818
O         -2.68011        1.19725       -0.75723
O         -2.55827       -1.22672       -1.22951
O         -1.96773       -0.35584        1.00552
O         -4.29596       -0.35959        0.30878
H         -4.88433       -0.32720       -0.45776
S          2.17148        0.91262       -0.52672
O          1.74222        2.22227       -1.03087
O          1.97904       -0.22517       -1.46440
O          1.54333        0.59911        0.80780
C          3.92778        0.99961       -0.22403
H          4.25846        0.04421        0.18477
H          4.42080        1.20057       -1.17542
H          4.11414        1.80729        0.48400
N         -0.71949        2.16407        0.97447
H          0.12302        1.54222        0.92423
H         -1.32387        1.95311        0.15458
C         -0.32638        3.58763        1.03500
H         -1.21866        4.21316        1.00767
H          0.22869        3.76740        1.95575
H          0.31353        3.78856        0.17631
H         -1.26497        1.85105        1.77751
H          0.00029       -3.83495        0.34618
H          0.87424       -3.66059       -1.20102
H          2.40388       -3.99326        0.77021
H          2.70909       -2.48386       -0.09813
H          2.33037       -2.58741        2.54375
H          1.80690       -1.28470        1.67654
H         -0.86264       -1.94169       -0.94752
H         -0.20267       -1.46324        0.46426
C          0.69085       -3.20959       -0.22315
C          1.99089       -3.00450        0.55084
N          0.03617       -1.89813       -0.43782
N          1.71960       -2.29286        1.79393
H          0.68282       -1.24293       -0.93417
