32
1sa1msa1a1eda_223.log	Energy: -1011225.7973635
S         -1.93600        0.06826       -0.07089
O         -2.29200       -0.38973        1.26786
O         -0.93693       -0.81786       -0.75787
O         -3.23820        0.03253       -0.97319
O         -1.46818        1.47553       -0.16870
H         -3.86111       -0.68733       -0.61978
H          0.04610        1.50403       -0.76581
S          2.16347       -1.49752        0.12218
O          2.30554       -0.59875        1.25819
O          2.32301       -0.87277       -1.20442
O          0.82436       -2.29825        0.17591
H          0.02410       -1.70628       -0.14203
C          3.32510       -2.83040        0.26120
H          4.32036       -2.38670        0.22848
H          3.15549       -3.32765        1.21592
H          3.17320       -3.51347       -0.57364
N         -4.73057       -1.81516        0.25757
H         -4.19359       -1.73178        1.11935
H         -4.68729       -2.77822       -0.05737
H         -5.69835       -1.58572        0.45540
H          0.79938        4.22097       -0.77567
H          2.01041        4.41484        0.49058
H          2.82637        2.61248       -0.79630
H          2.08671        1.82660        0.61860
H          0.91017        2.06226       -2.07630
H          1.42742        0.67605       -1.30277
H         -0.10412        4.43540        1.53500
H         -0.51369        2.95706        0.94445
C          1.22001        3.74763        0.13218
C          1.88818        2.43699       -0.26497
N          0.26838        3.55142        1.21096
N          1.01910        1.62156       -1.16445
