41
1sa1msa1tma1eda_196.log	Energy: -1085203.1716581
S         -0.26959        0.86970        0.45226
O         -0.11822        1.87442       -0.60237
O         -0.80385       -0.42910       -0.05569
O          0.96473        0.67297        1.25003
O         -1.32406        1.39275        1.52749
H         -2.22797        1.36327        1.12773
S         -4.11170       -0.29228       -0.26466
O         -5.41826       -0.41804       -0.86728
O         -3.73662        0.98540        0.35370
O         -3.03833       -0.66899       -1.36556
H         -2.11901       -0.51825       -0.98835
C         -3.88057       -1.56134        0.96412
H         -4.57507       -1.35321        1.77870
H         -4.09944       -2.52436        0.50328
H         -2.84604       -1.51303        1.30899
H          3.60822       -3.98871        0.06445
H          4.13573       -3.06998        1.48010
H          1.68902       -3.03278        1.25580
H          2.35118       -1.40564        1.12069
H          1.48759       -3.03640       -1.15029
H          0.82820       -1.64579       -0.60776
H          5.46285       -2.51041       -0.45128
H          4.12250       -2.01001       -1.24791
C          3.69183       -2.97149        0.48391
C          2.29633       -2.37473        0.61587
N          4.54408       -2.09847       -0.32709
N          1.70913       -2.14918       -0.70651
N          3.01195        1.59521       -0.21757
C          2.84455        3.06919       -0.24111
H          1.83151        3.28782       -0.58021
H          2.98560        3.45555        0.76899
H          3.58754        3.50132       -0.91543
C          4.29302        1.17910        0.40522
H          4.29035        1.49549        1.44950
H          4.39304        0.09047        0.33009
H          5.11687        1.66289       -0.12602
C          2.83020        0.99655       -1.56736
H          2.75159       -0.08835       -1.45655
H          1.90043        1.38200       -1.98595
H          3.68370        1.27026       -2.19237
H          2.23077        1.21716        0.38389
