38
1sa1msa1dma1eda_211.log	Energy: -1060547.1529228
S          0.66336       -1.39631       -0.93035
O         -0.70383       -1.79197       -1.36859
O          1.65570       -2.45821       -0.90982
O          1.12626       -0.17358       -1.65921
O          0.39345       -0.90007        0.56645
H          0.34852        1.09274       -1.08037
H          1.27502       -0.75845        1.07669
S         -3.02457        0.00147        0.52324
O         -2.75960        0.96336       -0.56592
O         -2.41338        0.31712        1.80522
O         -2.71653       -1.44653        0.04876
H         -1.83742       -1.56350       -0.51733
C         -4.78377       -0.11997        0.73059
H         -5.13145        0.84619        1.09723
H         -5.23184       -0.35801       -0.23331
H         -4.98357       -0.90288        1.46195
N         -0.16919        1.95030       -0.72556
C          0.01915        3.03551       -1.70575
C          0.28470        2.26771        0.64683
H         -1.16776        1.66492       -0.69308
H          1.08038        3.28258       -1.76551
H         -0.32774        2.68968       -2.67962
H         -0.54971        3.91480       -1.39841
H          1.37664        2.31809        0.66257
H         -0.14690        3.22087        0.95870
H         -0.06237        1.47212        1.30617
H          4.72044       -0.84380        1.79505
H          3.69897       -1.80906        0.70182
H          4.93103       -0.06182       -0.51953
H          3.18089        0.14163       -0.65726
H          4.92451        1.72239        1.10114
H          4.02486        2.24846       -0.14719
H          2.56044       -1.06508        2.76177
H          2.67420        0.48115        2.20763
C          3.82839       -0.82076        1.15074
C          4.02203        0.20239        0.03894
N          2.61901       -0.49529        1.92342
N          4.05628        1.56132        0.59808
