38
1sa1msa1dma1eda_289.log	Energy: -1060547.7050684
S         -0.78150       -1.48707        0.09497
O         -0.38953       -0.32629       -0.74843
O         -1.70813       -2.40859       -0.55144
O          0.41273       -2.10792        0.71544
O         -1.57945       -0.85400        1.35706
H         -2.55511       -0.82000        1.11381
S          3.22298       -0.20546       -0.17082
O          4.64685       -0.08791        0.06619
O          2.49670        1.02004       -0.52874
O          2.57857       -0.83930        1.11926
H          1.67853       -1.29661        0.95359
C          2.90683       -1.40943       -1.44182
H          3.38539       -1.03897       -2.34895
H          3.34458       -2.35757       -1.13053
H          1.82768       -1.49271       -1.57643
N          0.18417        2.31689        0.10468
C          0.30268        2.03359        1.55623
C          0.91514        3.52537       -0.33343
H          0.55656        1.48465       -0.38500
H         -0.09762        2.87875        2.11845
H         -0.25822        1.12376        1.77675
H          1.35615        1.87857        1.78850
H          0.52486        4.39207        0.20225
H          1.97446        3.38116       -0.12556
H          0.76949        3.65421       -1.40573
H         -0.82264        2.38492       -0.14535
H         -4.60069        1.94845       -0.04740
H         -4.06369        1.83433       -1.71700
H         -5.38335       -0.15354       -1.17286
H         -3.70167       -0.60441       -1.49630
H         -4.91069       -0.45559        1.16574
H         -4.29556       -1.75789        0.38757
H         -2.49858        1.27774        0.68636
H         -1.97420        0.89370       -0.77641
C         -3.94000        1.39240       -0.72313
C         -4.35548       -0.08098       -0.79090
N         -2.55516        1.57826       -0.28390
N         -4.19421       -0.75350        0.50947
