32
1sa1msa1a1eda_144.log	Energy: -1011231.5979794
S         -2.84785       -0.73407        0.13172
O         -3.18430        0.31665        1.07962
O         -2.02839       -0.23267       -1.01338
O         -2.27188       -1.98246        0.67123
O         -4.28326       -1.16573       -0.49690
H         -4.19247       -2.04420       -0.88851
S          3.01426       -0.41707        0.13735
O          3.16854        0.74639        1.01610
O          2.09138       -0.16619       -1.01938
O          2.62469       -1.67994        0.84011
C          4.61786       -0.74540       -0.57789
H          4.94123        0.14974       -1.10975
H          5.30724       -0.97615        0.23469
H          4.53265       -1.59008       -1.26171
N          0.30450       -2.23381       -0.34797
H          1.13659       -2.19645        0.30134
H         -0.61628       -2.17365        0.13389
H          0.44532       -1.40703       -0.94405
H          0.34059       -3.07343       -0.91839
H         -1.10842        3.76199        0.77962
H         -1.76711        2.18934        1.33829
H          0.82880        2.38356        1.52944
H          0.24649        1.01769        0.59736
H          1.61551        3.31845       -0.41828
H          1.54637        1.77697       -0.96561
H         -2.47713        2.97989       -0.97248
H         -0.84435        2.67444       -1.37059
C         -1.11425        2.68081        0.61686
C          0.30540        2.10919        0.60994
N         -1.64800        2.43465       -0.75389
N          0.98268        2.55086       -0.61129
H         -1.86003        1.40934       -0.89089
