35
1sa1msa1ma1eda_170.log	Energy: -1035886.9227017
S          0.51031        2.01903        0.00667
O          0.78019        1.05030       -1.06943
O         -0.78826        1.75122        0.68565
O          1.60333        2.23535        0.95185
O          0.31123        3.40754       -0.81038
H          0.32080        4.13133       -0.16921
S         -3.06284       -0.76970       -0.02557
O         -3.00385       -0.94337        1.41788
O         -2.20240       -1.65028       -0.82732
O         -2.82998        0.72996       -0.42651
H         -1.99316        1.14300        0.00377
C         -4.72947       -0.96213       -0.60348
H         -5.00714       -2.00016       -0.41866
H         -5.36749       -0.28290       -0.03920
H         -4.75425       -0.73796       -1.66938
N          0.51217       -1.51024       -0.04603
H          1.35586       -2.08167       -0.29064
H          0.61784       -0.58115       -0.50339
C          0.45018       -1.33663        1.42746
H         -0.38215       -0.68128        1.68203
H          0.30403       -2.31141        1.89361
H          1.39282       -0.89437        1.75327
H         -0.36940       -1.89906       -0.40566
H          5.12329       -2.07595       -0.54431
H          4.02524       -2.02364       -1.93085
H          4.59458        0.24105       -1.06361
H          2.86641       -0.06992       -1.05356
H          4.59082       -0.00248        1.29056
H          3.15918        0.74746        1.01828
H          3.31083       -3.66343       -0.31983
H          3.21283       -2.50319        0.83730
C          4.09486       -1.83552       -0.85489
C          3.80908       -0.35948       -0.58187
N          3.11096       -2.68118       -0.16074
N          3.68110       -0.11240        0.85457
