40
1sa1msa2eda_239.log	Energy: -1095278.4975026
S          0.61053       -1.57827       -0.03866
O          0.39453       -0.72574       -1.24630
O          0.80515       -0.78402        1.18491
O         -0.69638       -2.44194        0.12504
O          1.73270       -2.53227       -0.24269
H         -1.47302       -2.08214       -0.49522
H          2.98060       -1.80630        0.47738
S         -0.79638        2.48418       -0.06212
O         -1.74549        3.54907       -0.31721
O          0.63640        2.76690       -0.15629
O         -1.15489        1.31608       -1.08108
H         -0.45985        0.58315       -1.10351
C         -1.11898        1.75842        1.52638
H         -1.01057        2.55553        2.26353
H         -2.12834        1.34142        1.53058
H         -0.39100        0.96007        1.68533
H          5.42152       -0.18501       -0.01575
H          4.53090       -1.24296       -1.14372
H          4.08324        1.24844       -1.52357
H          2.62324        0.32208       -1.17096
H          3.92350        2.21198        0.59857
H          2.32978        1.86864        0.40076
H          4.38991       -1.67944        1.42330
H          3.31099       -0.38301        1.34326
C          4.42992       -0.51379       -0.33830
C          3.56167        0.68502       -0.74091
N          3.75658       -1.16368        0.81897
N          3.26076        1.45824        0.45849
H         -4.35742       -2.38825        0.47755
H         -5.05524       -0.80799        0.84587
H         -4.55047       -0.72305       -1.45490
H         -3.27985        0.22745       -0.66282
H         -3.01924       -2.44908       -1.80210
H         -2.15008       -1.10340       -2.12641
H         -3.48343       -1.28397        2.52169
H         -2.26909       -1.53028        1.45857
C         -4.12261       -1.31331        0.57446
C         -3.68486       -0.77921       -0.78347
N         -3.13479       -1.01749        1.60774
N         -2.61963       -1.61362       -1.38163
