30
1sa1msa2ma_23.log	Energy: -976494.1141922
S         -2.09255       -1.10255       -0.17801
O         -2.14288       -2.50109       -0.56662
O         -0.81598       -0.71341        0.51041
O         -2.45099       -0.09397       -1.18595
O         -3.23269       -0.89436        0.96880
H         -3.33757       -1.73838        1.42772
S          2.39909       -0.47470        0.04247
O          2.44237        0.43922        1.18042
O          2.05936        0.12249       -1.25625
O          1.47365       -1.70141        0.33828
H          0.48511       -1.40058        0.40100
C          3.95745       -1.30676       -0.10862
H          4.70343       -0.54342       -0.33060
H          4.17351       -1.79719        0.84006
H          3.88443       -2.02976       -0.92031
N          0.04895        2.39808        1.41766
H          0.76866        1.70378        1.62071
C         -1.15414        2.14785        2.22397
H         -0.97362        2.22000        3.30324
H         -1.93013        2.86906        1.95368
H         -1.52455        1.14688        1.99710
H          0.45017        3.30263        1.64525
N         -0.34237        1.70640       -1.25112
H          0.48688        1.12026       -1.42638
H         -1.17455        1.08214       -1.28507
C         -0.44714        2.82075       -2.20891
H         -1.32140        3.42351       -1.96150
H          0.45036        3.43755       -2.14972
H         -0.55457        2.42866       -3.22046
H         -0.23646        2.04850       -0.24328
