38
1sa1msa1dma1eda_346.log	Energy: -1060538.9091678
S          0.09250        1.49241       -0.69544
O         -0.47981        0.52237       -1.65494
O          1.27624        2.21236       -1.14247
O         -1.01875        2.60285       -0.43335
O          0.32977        0.81920        0.63314
H         -1.88234        2.14943       -0.28174
H          1.91845        0.99384        0.91030
S         -3.22222       -0.39731        0.29530
O         -4.48093       -1.10583        0.30883
O         -3.21726        1.04455        0.02162
O         -2.26436       -1.11821       -0.73655
H         -1.58459       -0.47701       -1.12401
C         -2.39440       -0.64676        1.85101
H         -3.01857       -0.19065        2.62051
H         -2.30194       -1.71981        2.01934
H         -1.41979       -0.15835        1.79314
N          2.89864        1.10964        1.29535
C          3.91671        1.04844        0.21029
C          3.07005        0.08606        2.35431
H          2.90163        2.04365        1.70462
H          3.98241        0.01497       -0.14839
H          3.58955        1.71347       -0.58840
H          4.87937        1.36390        0.61734
H          2.87798       -0.89097        1.90860
H          4.08316        0.13637        2.75556
H          2.33876        0.27069        3.14160
H          2.09688       -0.66782       -1.31029
H          2.44180       -1.93148       -2.46921
H          0.19121       -2.21694       -1.51546
H          1.22052       -3.57423       -1.02078
H          0.50526       -1.26270        0.62188
H          0.18968       -2.83898        0.92325
H          3.23065       -2.46812        0.24226
H          4.03336       -2.81192       -1.13878
C          2.29016       -1.74495       -1.40223
C          1.05938       -2.49589       -0.90428
N          3.51067       -2.08758       -0.65968
N          0.87520       -2.20760        0.52376
