30
1sa1msa2ma_119.log	Energy: -976481.9529018
S         -1.49120        0.07520       -0.41512
O         -1.41054       -1.33167        0.00473
O         -0.36136        0.55019       -1.23466
O         -2.77811        0.22246       -1.33497
O         -1.70741        0.99629        0.75538
H         -3.51399       -0.36106       -0.93694
H         -0.45815        1.88320        0.88562
S          3.06312       -0.73127        0.24635
O          2.55449        0.49734        0.84357
O          3.89602       -1.61304        1.04409
O          3.94698       -0.26650       -1.03555
H          4.79626       -0.72911       -0.99413
C          1.74451       -1.61457       -0.52901
H          1.23612       -0.94005       -1.22217
H          2.17380       -2.48718       -1.02085
H          1.03416       -1.90420        0.24838
N         -4.43319       -1.41332       -0.04620
H         -5.23053       -1.86736       -0.47829
C         -4.79649       -0.78908        1.23202
H         -5.18675       -1.50123        1.96940
H         -3.90957       -0.30181        1.64352
H         -5.55062       -0.01878        1.05333
H         -3.70800       -2.11296        0.09729
N          0.47740        2.42139        0.85208
H          0.64597        2.86955        1.74967
C          0.46962        3.39141       -0.26696
H          1.44271        3.87699       -0.34569
H          0.24435        2.83003       -1.17330
H         -0.30901        4.13320       -0.08928
H          1.20664        1.70442        0.71563
