32
1sa1msa1a1eda_07.log	Energy: -1011244.5142013
S         -1.56590        1.52319       -0.21405
O         -0.93649        2.83021       -0.50311
O         -0.94286        0.92803        1.02137
O         -3.01381        1.47446       -0.23695
O         -1.12746        0.51286       -1.39940
H         -0.15721        0.32669       -1.36250
S          2.46820       -0.49108       -0.13535
O          2.19632       -1.32932        1.05652
O          2.89856        0.89377        0.20610
O          1.34267       -0.51642       -1.11120
C          3.86173       -1.22074       -0.97143
H          4.70860       -1.20890       -0.28521
H          3.59722       -2.24348       -1.24026
H          4.07388       -0.62911       -1.86185
N          1.18203        2.70676        1.16827
H          1.62464        3.51145        1.60055
H          1.89466        2.02896        0.77806
H          0.60266        2.18623        1.83201
H          0.50448        2.97790        0.41482
H         -1.50041       -3.56033        1.12437
H         -1.86698       -2.26243        2.29299
H         -3.76183       -2.70655        0.64371
H         -3.17810       -1.04225        0.60505
H         -3.17757       -2.83308       -1.54059
H         -2.51845       -1.32140       -1.50630
H          0.38687       -1.97269        1.14871
H         -0.46602       -1.86677       -0.26475
C         -1.71020       -2.49403        1.23739
C         -2.90715       -2.07884        0.37409
N         -0.53505       -1.73988        0.75324
N         -2.55210       -2.22057       -1.03614
H         -0.66922       -0.70917        0.90716
