28
1sa1msa1eda_117.log	Energy: -975728.7819633
S         -1.65839       -1.37303        0.04643
O         -1.97335       -1.08180        1.43799
O         -2.66893       -1.03344       -0.95747
O         -0.31094       -0.79856       -0.32369
O         -1.45444       -2.97970       -0.03898
H         -1.79469       -3.27128       -0.89536
S          2.80892        0.08455        0.05175
O          4.17880        0.04792        0.50928
O          1.97304        1.24166        0.38467
O          2.09895       -1.23209        0.57584
H          1.12810       -1.20931        0.32495
C          2.75162       -0.12133       -1.71679
H          3.19651        0.76798       -2.16445
H          3.32702       -1.01099       -1.97238
H          1.70654       -0.23079       -2.01136
H         -1.06215        3.61586        0.59549
H          0.12416        2.81136       -0.46921
H         -2.17984        3.10553       -1.55608
H         -1.65692        1.42267       -1.46539
H         -3.86483        2.58849       -0.06406
H         -3.49644        0.99740       -0.33847
H          0.03585        1.84162        1.77764
H         -1.57639        1.39947        1.46619
C         -0.82381        2.69494        0.05740
C         -1.97346        2.28097       -0.86469
N         -0.65260        1.61507        1.06270
N         -3.12511        1.89924       -0.05483
H         -0.32259        0.74805        0.58976
