32
1sa1msa1a1eda_111.log	Energy: -1011231.3398471
S          1.83456       -0.47455       -0.36684
O          2.91790        0.10865        0.42672
O          0.67253       -0.84333        0.51682
O          1.37895        0.34486       -1.50964
O          2.35562       -1.82007       -1.02005
H          2.98219       -2.26969       -0.35984
S         -2.68556       -0.80619        0.13458
O         -2.78114        0.21736       -0.92240
O         -2.63632       -0.30433        1.50067
O         -1.50847       -1.78276       -0.16401
H         -0.55788       -1.39336        0.08847
C         -4.05672       -1.91454       -0.06612
H         -4.01579       -2.33473       -1.07051
H         -3.97691       -2.69367        0.69127
H         -4.96506       -1.32822        0.07417
N          4.03589       -2.68502        0.87404
H          3.65196       -3.28172        1.59884
H          4.15619       -1.74920        1.25765
H          4.94444       -3.04700        0.60635
H         -1.27341        2.73487        1.07670
H         -0.26431        1.27441        1.16436
H          1.03140        3.31784        1.85990
H          1.72261        2.54098        0.43800
H          0.21570        5.04606        0.47123
H          1.58706        4.67129       -0.33779
H         -1.52958        1.50177       -0.93405
H         -0.58819        2.89498       -1.25721
C         -0.38843        2.23905        0.66976
C          0.85780        3.10673        0.79780
N         -0.63118        1.99129       -0.77690
N          0.69457        4.30569       -0.02961
H          0.13222        1.37298       -1.15763
