28
1sa1msa1eda_33.log	Energy: -975731.8748634
S         -0.82121        1.73283        0.02524
O         -1.92190        1.06922        0.74221
O          0.25377        2.28977        0.84208
O         -0.31261        0.87894       -1.08902
O         -1.57531        2.97786       -0.68664
H         -0.90356        3.60092       -0.99523
S          2.62039       -0.72374       -0.02438
O          3.78095       -1.50763       -0.38076
O          1.52104       -1.40138        0.68483
O          2.06013       -0.07681       -1.34833
H          1.14461        0.33863       -1.22761
C          3.10155        0.67373        0.96113
H          3.48965        0.28114        1.90181
H          3.88022        1.20878        0.41729
H          2.22231        1.30227        1.12292
H         -1.56162       -1.06395       -1.18894
H         -1.21944       -2.78883       -0.96056
H         -3.66962       -2.21360       -1.48327
H         -3.41406       -3.23967       -0.06940
H         -3.77489       -0.32532        0.17759
H         -4.87720       -1.48429        0.57822
H         -0.17606       -1.52172        0.74206
H         -1.58361       -0.66123        1.05119
C         -1.76849       -1.93382       -0.56246
C         -3.26354       -2.22629       -0.46098
N         -1.21321       -1.59550        0.77721
N         -3.88963       -1.29422        0.46454
H         -1.48943       -2.27189        1.48702
