24
1sa1msa2a_08.log	Energy: -927182.4313712
S          2.15782       -0.43579        0.02530
O          1.52740       -1.86596        0.19022
O          3.55791       -0.57922       -0.24384
O          1.47263        0.13113       -1.28600
O          1.73085        0.39134        1.15605
H          0.46903        0.08626       -1.21990
H          0.47054        1.54958        1.53707
S         -1.85962       -0.54465        0.03308
O         -1.12195        0.12837       -1.08727
O         -2.40848        0.44055        0.99280
O         -1.03455       -1.60014        0.66997
H          0.55465       -1.80388        0.43704
C         -3.25111       -1.36303       -0.71144
H         -3.87098       -0.60945       -1.19681
H         -2.87076       -2.08268       -1.43624
H         -3.80291       -1.86696        0.08224
N         -0.18417        2.98329       -1.17038
H         -0.46489        3.85231       -1.61190
H         -0.80321        2.23816       -1.49066
H          0.74729        2.74929       -1.50528
N         -0.33982        2.19426        1.49630
H         -0.32967        2.84383        2.27636
H         -1.20412        1.61005        1.48949
H         -0.28213        2.68738        0.55635
