38
1sa1msa1dma1eda_51.log	Energy: -1060563.1804748
S         -2.50845       -1.14860       -0.15342
O         -2.97034       -0.20721       -1.17343
O         -1.84991       -2.35907       -0.69389
O         -1.73007       -0.52328        0.93978
O         -3.82946       -1.68001        0.63580
H         -4.41689       -2.09141       -0.01247
S          2.90679        0.56947        0.07458
O          3.46393       -0.65778        0.66576
O          2.56721        1.65763        1.00355
O          1.70729        0.23512       -0.80236
C          4.13078        1.20445       -1.05994
H          5.02066        1.45402       -0.48108
H          4.35627        0.43255       -1.79573
H          3.72736        2.09450       -1.54288
N          0.82971       -2.26922        0.00916
C          0.88149       -2.36807        1.48778
C          1.74214       -3.20116       -0.68471
H         -0.15400       -2.40540       -0.30514
H          1.88448       -2.09221        1.81472
H          0.13748       -1.68232        1.89269
H          0.63814       -3.39115        1.77965
H          2.76395       -2.96435       -0.38475
H          1.48826       -4.22725       -0.41383
H          1.62887       -3.06401       -1.76021
H          1.09897       -1.30086       -0.27719
H         -0.57538        3.15640       -1.42664
H         -1.61071        1.70980       -1.60187
H         -2.97759        3.68162       -0.93222
H         -2.99832        2.40727        0.28611
H         -1.51812        4.92910        0.47634
H         -2.48766        4.21785        1.58662
H          0.44531        1.28036       -0.31344
H         -0.09326        2.39317        0.82999
C         -1.22326        2.44985       -0.90012
C         -2.36259        3.16294       -0.18517
N         -0.39578        1.74012        0.10244
N         -1.81481        4.03538        0.85264
H         -0.94579        0.97330        0.54434
