36
1sa1msa1ma1tma_60.log	Energy: -1025811.0419193
S          1.02511       -1.89927        0.13664
O         -0.26368       -2.49601       -0.28113
O          2.04751       -1.90191       -0.91075
O          0.85754       -0.59855        0.81494
O          1.56263       -2.84709        1.34197
H          1.66347       -3.74481        0.99648
S         -2.53971        0.21035       -0.24764
O         -3.86659        0.70818       -0.53931
O         -1.38843        1.05641       -0.57298
O         -2.39854       -1.18034       -0.98768
H         -1.53950       -1.65072       -0.76093
C         -2.41644       -0.22663        1.47365
H         -2.58529        0.68644        2.04595
H         -3.18652       -0.96613        1.69186
H         -1.41267       -0.61644        1.65367
N          1.59767        1.89434        2.20173
H          1.66698        0.88524        2.08935
C          0.19908        2.25353        2.44235
H         -0.24532        1.77395        3.32638
H          0.11228        3.33755        2.56551
H         -0.39567        1.96963        1.56890
H          2.17109        2.15141        2.99803
N          1.48475        1.42040       -1.08740
C          1.08468        0.86654       -2.40964
H          1.38398       -0.18160       -2.44663
H          0.00334        0.95593       -2.50237
H          1.59112        1.43734       -3.19105
C          1.07011        2.83831       -0.93082
H         -0.00930        2.89856       -1.06253
H          1.35207        3.15341        0.07469
H          1.58738        3.43435       -1.68599
C          2.94196        1.24907       -0.84150
H          3.15788        1.64500        0.15080
H          3.17110        0.18408       -0.89004
H          3.49042        1.80038       -1.60846
H          0.99988        0.85566       -0.36256
