39
1sa1msa1dma1tma_39.log	Energy: -1050478.1794069
S          0.03120       -1.73892       -0.43007
O          0.54183       -0.94926       -1.55757
O         -0.43929       -0.78340        0.68289
O         -1.03332       -2.69197       -0.72430
O          1.22825       -2.52699        0.20651
H          2.02213       -1.84563        0.36211
S          0.25837        2.50169       -0.02316
O          0.69695        3.77178        0.51833
O         -1.17473        2.26012       -0.20862
O          0.84281        1.35810        0.90386
H          0.29782        0.48197        0.80700
C          1.06878        2.20990       -1.57881
H          0.67500        2.93742       -2.28975
H          2.13847        2.36303       -1.43172
H          0.85027        1.18351       -1.88351
N          3.11374       -0.77788        0.52443
C          3.79000       -0.63845       -0.76792
C          4.02616       -1.08144        1.62709
H          2.61448        0.08716        0.72975
H          4.27766       -1.58469       -1.01833
H          3.04073       -0.42979       -1.53406
H          4.55009        0.15465       -0.75634
H          4.48773       -2.05757        1.45320
H          4.82233       -0.33140        1.72821
H          3.46283       -1.12900        2.56140
N         -3.06176       -0.40052        0.36451
C         -3.20773       -0.11562       -1.08757
H         -2.65280        0.79605       -1.30936
H         -2.78603       -0.95498       -1.64156
H         -4.26829        0.00768       -1.31927
C         -3.68535       -1.69511        0.73482
H         -3.19969       -2.48270        0.15796
H         -3.51943       -1.87104        1.79811
H         -4.75647       -1.64865        0.52462
C         -3.54973        0.72207        1.20177
H         -3.36637        0.48234        2.24990
H         -2.99793        1.62122        0.92696
H         -4.62089        0.85481        1.03247
H         -2.02149       -0.50475        0.53621
