32
1sa1msa1a1eda_136.log	Energy: -1011231.0244546
S         -1.29560        1.71967       -0.02676
O         -2.15072        1.54496        1.14675
O          0.14097        1.85171        0.35201
O         -1.50229        0.75913       -1.12093
O         -1.70720        3.13015       -0.71110
H         -1.75165        3.79900       -0.01415
S          2.73600       -0.31599       -0.12364
O          2.15848       -1.52255       -0.72695
O          2.63526       -0.19607        1.32662
O          2.17274        0.96394       -0.83015
H          1.31770        1.33088       -0.38086
C          4.43615       -0.21946       -0.62086
H          4.47637       -0.21259       -1.70977
H          4.86346        0.69132       -0.20291
H          4.93252       -1.10349       -0.21994
N         -0.27874       -0.60903        2.35669
H          0.66009       -0.21563        2.29188
H         -0.33855       -1.13422        3.22243
H         -0.93744        0.16821        2.40137
H         -1.56955       -3.33870       -1.15402
H         -1.31230       -3.55773        0.59771
H         -3.66296       -3.18605        0.22479
H         -3.01866       -1.74096        1.01188
H         -4.51073       -1.49427       -1.06110
H         -3.12344       -0.62910       -1.11261
H          0.32267       -2.00669       -0.47205
H         -0.91879       -0.94438       -0.75080
C         -1.60876       -2.84822       -0.17940
C         -3.01577       -2.31704        0.07199
N         -0.62099       -1.74177       -0.16288
N         -3.50153       -1.57379       -1.08197
H         -0.51370       -1.35416        0.83137
