30
1sa1msa1a1dma_16.log	Energy: -976506.1684734
S          2.77503       -0.33401       -0.06759
O          2.38615       -1.53218       -0.84623
O          3.12256        0.83129       -0.87442
O          1.80232       -0.05755        1.01972
O          4.10780       -0.75082        0.76669
H          4.84974       -0.77658        0.14729
S         -2.74533       -0.36071       -0.11836
O         -2.38556       -1.66181       -0.75268
O         -2.86897        0.76857       -1.04753
O         -1.79448       -0.05826        1.00903
C         -4.34051       -0.61040        0.63863
H         -5.04752       -0.86887       -0.14995
H         -4.26028       -1.41976        1.36427
H         -4.63378        0.31893        1.12708
N          0.02108       -2.28757        0.31672
H          0.05188       -3.19114        0.77980
H         -0.87392       -2.17389       -0.22552
H          0.02635       -1.53483        1.01365
H          0.87918       -2.14779       -0.26487
N         -0.00634        1.85662        0.23760
C          0.07256        1.90467       -1.24221
C         -0.12378        3.17891        0.87997
H         -0.80812        1.24403        0.51953
H          0.96567        2.45820       -1.53181
H          0.14661        0.88491       -1.61894
H         -0.83970        2.35722       -1.62902
H          0.75258        3.77942        0.63172
H         -1.02788        3.66976        0.51737
H         -0.18604        3.04248        1.95967
H          0.81873        1.33721        0.59971
