27
1sa1msa1a1ma_151.log	Energy: -951823.6268268
S         -2.08494       -0.87479       -0.07190
O         -1.68215       -2.27044       -0.21591
O         -2.40413       -0.47613        1.32330
O         -1.20599        0.10764       -0.73628
O         -3.48313       -0.70487       -0.90104
H         -4.06158       -1.43878       -0.65478
S          2.35906       -0.45095       -0.03167
O          2.75819        0.71428       -0.78834
O          1.70839       -0.27698        1.27062
O          3.69976       -1.31338        0.26935
H          3.67313       -1.60671        1.19137
C          1.42960       -1.55155       -1.05661
H          0.53482       -1.00339       -1.36371
H          2.06051       -1.81767       -1.90480
H          1.13893       -2.42249       -0.46932
N         -0.53780        1.38971        1.94770
H         -0.67278        2.13363        1.18151
H         -0.52746        1.79672        2.87755
H         -1.31907        0.69296        1.84462
H          0.33865        0.88087        1.76852
N         -0.92386        2.96518       -0.27474
H         -1.30266        2.13879       -0.74267
C          0.32129        3.38118       -0.93392
H          0.18418        3.63807       -1.99084
H          0.73944        4.24927       -0.41727
H          1.04939        2.56865       -0.87507
H         -1.62269        3.69907       -0.32911
