36
1sa1msa1ma1tma_117.log	Energy: -1025799.6608992
S          1.75571       -0.23686        0.69790
O          0.56308       -0.27900        1.55723
O          3.03624       -0.47437        1.38932
O          1.65894       -1.46680       -0.32516
O          1.81258        0.99714       -0.13722
H          0.74284       -1.50988       -0.70388
H          3.44803        1.27659       -0.49440
S         -2.03987       -1.83255       -0.28272
O         -2.56902       -3.16796       -0.45141
O         -0.89014       -1.41723       -1.10502
O         -1.65603       -1.64221        1.24245
H         -0.81931       -1.10466        1.35635
C         -3.32910       -0.64195       -0.52057
H         -3.66282       -0.74201       -1.55462
H         -4.13687       -0.89650        0.16643
H         -2.92651        0.36312       -0.32295
N          4.43983        0.92688       -0.40561
H          5.10437        1.69089       -0.31386
C          4.75493        0.00024       -1.52071
H          5.73400       -0.44905       -1.35831
H          3.98705       -0.77401       -1.52970
H          4.73948        0.54834       -2.46204
H          4.34296        0.39636        0.48641
N         -2.12835        2.34071       -0.07403
C         -1.15245        2.42432       -1.14916
H         -0.35036        1.70252       -0.98113
H         -1.63670        2.19724       -2.10477
H         -0.69854        3.43159       -1.22243
C         -3.21054        3.28780       -0.26621
H         -3.69659        3.10806       -1.23072
H         -3.95907        3.16538        0.52300
H         -2.86076        4.33818       -0.24892
C         -1.49944        2.50651        1.22752
H         -2.24663        2.37330        2.01629
H         -0.71805        1.75496        1.36034
H         -1.04565        3.50906        1.34665
