36
1sa1msa2dma_207.log	Energy: -1025798.7955825
S          0.10671        0.25166       -0.21710
O         -0.86190        1.17971       -0.82426
O          1.45175        0.81568       -0.01423
O         -0.39056       -0.04400        1.27987
O          0.16369       -1.06510       -0.90785
H         -1.35474       -0.26162        1.25983
H          1.71294       -1.67471       -0.62116
S         -4.01357        0.16126        0.17536
O         -4.70817        1.23493        0.85528
O         -3.01084       -0.60275        0.93392
O         -3.36414        0.66042       -1.17377
H         -2.37993        0.86949       -1.06054
C         -5.20043       -0.98852       -0.47454
H         -5.74284       -1.39881        0.37765
H         -5.87508       -0.44070       -1.13216
H         -4.66751       -1.77021       -1.01436
N          2.67163       -1.62107       -0.18584
C          3.71194       -2.22149       -1.04141
C          2.58602       -2.17165        1.18669
H          2.77051       -0.59358       -0.12186
H          3.51993       -3.29069       -1.14099
H          3.67629       -1.74707       -2.02199
H          4.69125       -2.05839       -0.58868
H          2.36148       -3.23716        1.12610
H          3.53647       -2.01451        1.69849
H          1.78359       -1.65083        1.71105
N          4.23910        1.93237        0.32308
C          4.86117        1.03454        1.26642
C          4.60445        1.67044       -1.05097
H          3.22949        1.92228        0.42300
H          5.94324        1.20636        1.29512
H          4.46341        1.21052        2.26883
H          4.71963       -0.04358        1.02804
H          5.67142        1.87066       -1.20164
H          4.42221        0.62259       -1.37080
H          4.03533        2.32325       -1.71572
