35
1sa1msa1ma1eda_71.log	Energy: -1035894.5763971
S          1.74543       -1.73015        0.06894
O          0.67619       -1.24115       -0.97887
O          1.42746       -1.11173        1.36719
O          1.92536       -3.15582        0.02950
O          3.02032       -1.03914       -0.50950
H          2.97824       -0.01344       -0.34910
S         -2.67295       -0.18848       -0.32333
O         -2.22946        0.80495       -1.32150
O         -2.95402        0.40962        1.01180
O         -1.72790       -1.34390       -0.19796
H         -0.29522       -1.33193       -0.66508
C         -4.20715       -0.88204       -0.89891
H         -4.93395       -0.07342       -0.97656
H         -4.02621       -1.33669       -1.87284
H         -4.53338       -1.62975       -0.17630
N         -0.40084        0.87802        1.87520
H          0.13071       -0.00243        1.73916
H         -0.10760        1.50896        1.08930
C         -0.14036        1.46484        3.20211
H         -0.66890        2.41422        3.29020
H         -0.49194        0.77973        3.97305
H          0.93108        1.62488        3.32853
H         -1.41721        0.68018        1.71523
H          2.59649        3.41558       -1.05879
H          3.12637        2.07487       -2.08571
H          0.80522        2.52112       -2.55336
H          0.92532        0.94600       -1.76167
H          0.04050        3.42522       -0.48459
H         -0.82287        2.06920       -0.80765
H          3.83422        1.84442        0.24161
H          2.27093        1.69896        0.69346
C          2.48230        2.33719       -1.24148
C          1.03914        2.02144       -1.60436
N          2.91661        1.54656       -0.07742
N          0.10586        2.41132       -0.53466
