24
1sa1msa2a_76.log	Energy: -927164.9636349
S         -2.14768       -0.80224        0.03845
O         -2.97299        0.36186        0.39680
O         -1.19968       -0.50863       -1.07201
O         -1.53576       -1.49527        1.17101
O         -3.14976       -1.86996       -0.67933
H         -3.74911       -2.20841       -0.00083
S          2.72718       -0.07814        0.19479
O          2.05901        1.21301        0.08745
O          3.83184       -0.23644        1.12117
O          3.29233       -0.40151       -1.29466
H          4.19956       -0.72816       -1.20866
C          1.51829       -1.35000        0.40975
H          1.01331       -1.17236        1.36077
H          0.78354       -1.27917       -0.39587
H          2.03444       -2.30976        0.41487
N         -0.36393        2.03689       -1.16884
H         -0.77587        1.06770       -1.24842
H          0.58897        1.91586       -0.80079
H         -0.33968        2.49636       -2.07398
H         -0.95699        2.58443       -0.47164
N         -2.04707        3.10205        0.77788
H         -1.62851        3.33217        1.67371
H         -2.52713        2.20129        0.87530
H         -2.74721        3.80912        0.57846
