40
1sa1msa2eda_51.log	Energy: -1095297.2164803
S         -3.00974        0.41993       -0.20038
O         -2.08061        0.09714       -1.30305
O         -3.59398       -0.73579        0.48317
O         -2.44719        1.43572        0.72054
O         -4.23040        1.15633       -0.98947
H         -4.96209        1.25840       -0.36627
S          2.58685       -0.95868       -0.25169
O          2.55516       -0.59481        1.17840
O          1.99537        0.09120       -1.13208
O          2.00791       -2.30230       -0.54602
C          4.30588       -1.07590       -0.71693
H          4.76618       -1.85848       -0.11357
H          4.36014       -1.32217       -1.77732
H          4.77850       -0.11330       -0.51984
H         -2.31602       -2.71287        0.25233
H         -1.11872       -4.03430        0.08924
H         -1.01931       -2.92059        2.33690
H          0.50438       -2.83350        1.43871
H         -1.29963       -0.60889        1.94469
H          0.36505       -0.69454        1.95162
H         -0.97896       -2.71723       -1.84498
H         -1.03067       -1.28943       -1.01455
C         -1.25227       -2.95713        0.21486
C         -0.52573       -2.46812        1.46611
N         -0.68158       -2.27083       -0.98074
N         -0.48395       -1.01280        1.49784
H          0.36810       -2.26365       -0.92719
H          0.38655        2.95372        1.70833
H          1.36057        1.45411        1.63140
H          2.81548        3.46405        1.33997
H          2.80643        2.41191       -0.08424
H          1.42011        4.98232        0.13854
H          2.40176        4.43940       -1.05484
H         -0.77580        1.57875        0.23982
H          0.11381        2.61506       -0.73600
C          1.01431        2.32429        1.07154
C          2.19829        3.10170        0.50796
N          0.18372        1.84839       -0.05837
N          1.70456        4.15689       -0.37746
H          0.66813        1.05068       -0.52175
