30
1sa1msa2ma_87.log	Energy: -976489.9030138
S          1.72450       -1.49755       -0.35050
O          0.35164       -1.99724       -0.64015
O          2.76294       -2.49190       -0.53114
O          1.96289       -0.17283       -0.95363
O          1.70136       -1.11986        1.25150
H          1.81069       -1.94083        1.74987
S         -2.43004       -0.13949        0.21081
O         -2.55109        0.11053       -1.22058
O         -1.71968        0.90143        0.97223
O         -1.81565       -1.54357        0.50180
H         -0.89710       -1.69770        0.03477
C         -4.03399       -0.36390        0.93380
H         -4.57224        0.57532        0.80453
H         -4.53514       -1.17612        0.40816
H         -3.90536       -0.59531        1.99064
N          2.54615        2.43510        0.55641
H          2.92288        1.57991        0.14732
C          2.18090        2.18664        1.95790
H          3.02980        1.88744        2.58400
H          1.73301        3.08869        2.38335
H          1.44166        1.38296        1.99257
H          3.26464        3.14825        0.49157
N          0.21264        1.91221       -0.85900
H          0.65186        1.00757       -1.11892
H         -0.49555        1.69517       -0.13903
C         -0.38569        2.60674       -2.01481
H         -0.78067        3.57062       -1.69278
H          0.37883        2.75829       -2.77685
H         -1.19355        1.99119       -2.41046
H          1.01668        2.41672       -0.39702
