24
1sa1msa2a_51.log	Energy: -927172.7619084
S         -1.19643       -0.85882       -0.32607
O          0.08644       -1.58481       -0.43785
O         -2.33706       -1.65685        0.10594
O         -1.00382        0.20932        0.88975
O         -1.45741       -0.01253       -1.52148
H         -0.09422        0.59261        0.82452
H         -2.29977        1.28490       -1.08875
S          2.64680        0.40575        0.10276
O          1.47887        1.18053        0.55354
O          3.87994        1.11375       -0.14727
O          2.26883       -0.38417       -1.21206
H          1.38718       -0.84864       -1.07854
C          2.90596       -0.89296        1.29233
H          3.12612       -0.41773        2.24872
H          1.99123       -1.48627        1.34791
H          3.74763       -1.49766        0.95514
N         -4.24699        0.39342        1.13346
H         -4.03361        0.54807        2.11454
H         -3.76556       -0.47167        0.86320
H         -5.24661        0.23241        1.06017
N         -2.85366        2.03755       -0.57698
H         -3.49114        1.50700        0.11653
H         -3.38950        2.60911       -1.22370
H         -2.19507        2.61610       -0.06073
