36
1sa1msa1ma1tma_49.log	Energy: -1025814.6398138
S          1.58645       -0.85497       -1.02807
O          2.22017       -0.64418        0.29380
O          0.76871        0.37860       -1.37624
O          2.46339       -1.25519       -2.10785
O          0.47624       -1.98460       -0.82190
H          0.60784       -2.43674        0.09725
S         -2.43632        0.25232       -0.24335
O         -3.69458        0.96853       -0.19115
O         -1.46604        0.46355        0.83767
O         -1.74459        0.59434       -1.61742
H         -0.74033        0.41517       -1.57846
C         -2.74816       -1.49227       -0.37537
H         -3.20082       -1.81594        0.56264
H         -3.43556       -1.64521       -1.20731
H         -1.79194       -1.98614       -0.55558
N          0.82417       -2.88687        1.60540
H          1.00964       -3.86382        1.80563
C         -0.25475       -2.35388        2.44441
H         -0.02657       -2.37609        3.51669
H         -0.46137       -1.32468        2.13965
H         -1.16310       -2.93734        2.27320
H          1.68608       -2.36378        1.74749
N          1.08685        2.17245        0.61686
C          0.08077        3.23046        0.35425
H          0.04817        3.42089       -0.71900
H         -0.89100        2.87159        0.69132
H          0.36611        4.13805        0.89090
C          1.08682        1.73974        2.03557
H          0.07926        1.41681        2.29263
H          1.77996        0.90431        2.12699
H          1.39801        2.58014        2.66104
C          2.44443        2.56928        0.16439
H          3.11380        1.72348        0.32189
H          2.40044        2.79944       -0.90012
H          2.77061        3.44266        0.73351
H          0.83032        1.35220        0.01164
