40
1sa1msa2eda_204.log	Energy: -1095283.0138451
S          0.51251       -1.74603       -0.36567
O          1.47500       -2.77677       -0.73428
O         -0.88198       -2.45802       -0.21316
O          0.83401       -1.14534        0.99098
O          0.36796       -0.63699       -1.34187
H          2.32094       -1.25888        1.24614
H         -0.35459        0.65427       -0.45603
S         -3.61537        0.19229       -0.01666
O         -4.05759       -0.35423       -1.29530
O         -3.21698        1.63430       -0.04551
O         -2.52639       -0.61366        0.64907
H         -1.59596       -1.79338        0.03740
C         -4.99696        0.10562        1.11240
H         -5.81055        0.69506        0.68880
H         -5.28961       -0.94052        1.20504
H         -4.68858        0.50881        2.07696
H          0.28821        2.89109        1.38778
H          1.36983        1.53946        0.98867
H          1.19013        2.12115       -1.43615
H          0.21266        3.53688       -1.02766
H          2.64057        3.96236       -1.27936
H          2.13712        4.36042        0.21558
H         -0.78963        0.65270        1.10024
H         -1.51009        1.75130        0.12233
C          0.56485        2.17375        0.60984
C          1.01437        2.87814       -0.66440
N         -0.58731        1.30108        0.33260
N          2.27812        3.57554       -0.41412
H          5.14169       -1.36724        0.18805
H          3.64585       -1.98362       -0.58950
H          4.35560        0.27605       -1.49486
H          2.74508        0.27438       -0.78197
H          5.15075        1.41787        0.42655
H          3.65316        2.07888        0.26198
H          3.67834       -2.06360        1.91210
H          3.65355       -0.37799        1.84897
C          4.07156       -1.19767        0.03590
C          3.81121        0.18977       -0.54642
N          3.40260       -1.25141        1.36615
N          4.15787        1.20796        0.44578
