32
1sa1msa1a1eda_148.log	Energy: -1011229.5843015
S         -0.99099       -2.22443       -0.07476
O         -0.42384       -2.47329        1.25246
O         -2.36220       -1.74375       -0.14763
O         -0.08195       -1.35877       -0.91392
O         -1.01130       -3.66170       -0.82994
H         -0.29165       -4.19368       -0.46493
S          2.49388        0.68752       -0.05441
O          2.43031        0.84850        1.39429
O          1.58483        1.50817       -0.85468
O          2.34752       -0.82446       -0.45722
H          1.36555       -1.09303       -0.60501
C          4.16561        0.97352       -0.57940
H          4.39728        2.01175       -0.34003
H          4.81689        0.29603       -0.02787
H          4.22780        0.79755       -1.65260
N         -0.47328        0.43554        2.26940
H          0.51812        0.67006        2.32467
H         -0.52768       -0.58477        2.24873
H         -0.92370        0.75470        3.12052
H         -2.85837        1.37819       -1.59476
H         -3.16419        0.52295       -0.07731
H         -4.15676        2.81899       -0.00745
H         -2.86575        2.66045        1.18637
H         -2.63851        4.06648       -1.37243
H         -2.27414        4.60668        0.12836
H         -0.83612        0.36354       -0.83643
H         -0.67655        2.01238       -0.61846
C         -2.65368        1.37894       -0.52032
C         -3.07122        2.69981        0.11145
N         -1.20173        1.18387       -0.32727
N         -2.28186        3.78645       -0.46504
H         -0.97164        0.99004        0.69848
