30
1sa1msa2ma_63.log	Energy: -976491.5819781
S          1.37615        0.80414       -0.23150
O          1.01211        1.34857        1.09872
O          1.18876       -0.68698       -0.26420
O          0.68474        1.49772       -1.33045
O          2.91327        1.02088       -0.46732
H          3.44059        0.31426        0.07683
S         -2.28344       -1.23316       -0.08297
O         -2.33038       -1.09630       -1.52820
O         -2.64915       -0.03328        0.69616
O         -0.91821       -1.79795        0.41305
H         -0.05874       -1.27237        0.09439
C         -3.35301       -2.54847        0.44503
H         -4.37113       -2.25268        0.19073
H         -3.06744       -3.45304       -0.09113
H         -3.24166       -2.67575        1.52120
N          4.08485       -0.92472        0.83112
H          4.96273       -0.74862        1.30899
C          4.21514       -2.01044       -0.15219
H          4.53138       -2.96034        0.29342
H          3.24702       -2.14217       -0.63875
H          4.94280       -1.71570       -0.91128
H          3.39561       -1.16948        1.53708
N         -1.37180        2.38158        0.23378
H         -0.86074        2.23263       -0.65766
H         -1.99196        1.55834        0.36735
C         -2.07414        3.67445        0.31236
H         -2.54526        3.77212        1.29017
H         -1.35576        4.48109        0.16770
H         -2.83592        3.71727       -0.46558
H         -0.60329        2.26632        0.92044
