32
1sa1msa1a1eda_176.log	Energy: -1011228.7305874
S         -1.07648       -2.10726       -0.02573
O         -0.95129       -2.21195        1.42786
O         -2.28312       -1.40509       -0.49702
O          0.13177       -1.58496       -0.71960
O         -1.15896       -3.62760       -0.59227
H         -1.74607       -4.12651       -0.00851
S          2.61504        0.60102       -0.01492
O          2.49399        1.23021        1.29383
O          1.78409        1.14302       -1.09688
O          2.41287       -0.94914        0.09511
H          1.46841       -1.25517       -0.18583
C          4.31659        0.66270       -0.51733
H          4.58862        1.71568       -0.59430
H          4.91295        0.16455        0.24679
H          4.41109        0.16222       -1.48025
N         -0.49955        0.82118        1.98298
H          0.47331        1.04027        2.18696
H         -0.65057       -0.17142        2.16458
H         -1.10379        1.35929        2.59387
H         -1.17268        3.22920       -0.96485
H         -1.83931        2.27025       -2.29726
H         -3.71586        3.24533       -1.15470
H         -3.70305        1.52132       -0.77563
H         -2.91308        3.66844        1.04319
H         -3.95736        2.43245        1.29475
H         -0.12523        1.06202       -1.07858
H         -0.93151        1.16293        0.37811
C         -1.77555        2.34972       -1.20874
C         -3.17066        2.46312       -0.60610
N         -1.07379        1.16034       -0.69138
N         -3.09468        2.69309        0.83270
H         -1.59362        0.28753       -0.88319
