23
1sa1msa1ma_08.log	Energy: -916337.2645859
S         -1.81805       -0.75613       -0.02750
O         -1.40062       -0.23088        1.27586
O         -2.27892        0.29875       -0.95815
O         -0.84053       -1.67757       -0.65195
O         -3.10198       -1.67632        0.31078
H         -3.33956       -2.17497       -0.48335
S          2.27292       -0.20095       -0.06283
O          1.58145        1.09844        0.00305
O          3.69880       -0.18102       -0.28991
O          1.62550       -1.08290       -1.19722
H          0.64668       -1.26340       -1.03635
C          1.89128       -1.08516        1.43273
H          2.36873       -0.54295        2.24998
H          0.80663       -1.10619        1.56198
H          2.30773       -2.08824        1.34169
N         -0.85243        2.30501        0.21335
H         -1.48756        1.75704       -0.40946
H         -1.18050        2.09424        1.15749
C         -0.79805        3.74781       -0.09535
H         -0.11093        4.23953        0.59264
H         -0.43787        3.87182       -1.11587
H         -1.79379        4.18032       -0.00102
H          0.08063        1.84682        0.13002
