36
1sa1msa2dma_193.log	Energy: -1025798.8391568
S          1.94593       -0.29611       -0.67780
O          0.66377       -0.87655       -1.11791
O          3.10659       -0.61080       -1.50523
O          1.80570        1.29737       -0.78841
O          2.20505       -0.57887        0.77375
H          0.94826        1.57395       -0.38148
H          3.68495       -0.46875        1.02300
S         -1.86129        1.11997        0.16601
O         -2.68486        1.61164       -0.92218
O         -0.57184        1.78827        0.40444
O         -1.60241       -0.43550        0.01084
H         -0.70394       -0.62302       -0.42186
C         -2.80055        1.12525        1.66724
H         -3.08742        2.16087        1.85303
H         -3.67439        0.48511        1.49290
H         -2.16755        0.74279        2.46743
N         -4.74988       -1.04041        0.17885
C         -5.60185       -0.34364       -0.77361
C         -5.34709       -2.26265        0.68963
H         -3.85744       -1.25191       -0.25745
H         -6.50297        0.01309       -0.26193
H         -5.06698        0.52190       -1.17145
H         -5.92388       -0.97850       -1.61731
H         -6.24172       -2.01548        1.27232
H         -5.64948       -2.97057       -0.10189
H         -4.64197       -2.76937        1.35438
N          4.76691       -0.37305        1.10417
C          5.16010        0.89816        0.44493
C          5.38408       -1.57565        0.49335
H          4.99123       -0.33080        2.09705
H          4.86881        0.82870       -0.60341
H          4.61669        1.71846        0.91371
H          6.23706        1.04612        0.54247
H          5.02708       -1.63623       -0.53527
H          6.47182       -1.49054        0.52789
H          5.05408       -2.45679        1.04376
