24
1sa1msa2a_64.log	Energy: -927165.3261032
S          2.32805        0.02472       -0.34753
O          2.84274       -0.29671       -1.66355
O          0.95446       -0.44546       -0.03025
O          3.20656       -0.83056        0.72609
O          2.48104        1.44837        0.05640
H          4.09260       -0.93764        0.35437
H          1.23542        2.00765        0.81411
S         -2.42395        0.26039       -0.22044
O         -3.44082        1.06367       -0.86235
O         -1.80779        0.78061        1.01673
O         -1.27491        0.01315       -1.27707
H         -0.39429       -0.20080       -0.84101
C         -3.04359       -1.36005        0.13105
H         -3.82214       -1.24415        0.88650
H         -3.46346       -1.75372       -0.79515
H         -2.21377       -1.98243        0.49504
N          0.36556        2.38132        1.31844
H          0.55285        2.45134        2.31558
H         -0.44340        1.73046        1.16637
H          0.12455        3.30084        0.95602
N         -0.31785       -2.99870        0.98350
H         -0.14783       -3.24676        1.95246
H          0.33793       -2.25894        0.73540
H         -0.08668       -3.81050        0.42022
