39
1sa1msa1dma1tma_123.log	Energy: -1050465.5269963
S          1.57034        1.16560        1.04851
O          0.48011        1.11473        2.04760
O          2.74013        0.36335        1.41042
O          1.11164        0.94175       -0.33950
O          2.03775        2.72035        1.00203
H          2.23332        3.00195        1.90631
S         -2.07008       -1.10345        0.84882
O         -2.46936       -2.04908        1.87530
O         -0.87396       -1.43199        0.06318
O         -1.90993        0.34852        1.45295
H         -0.95591        0.59104        1.68202
C         -3.41796       -0.80435       -0.26247
H         -3.66050       -1.76194       -0.72529
H         -4.26248       -0.43904        0.32226
H         -3.06959       -0.06783       -0.99716
N         -1.58199        1.47169       -1.71208
C         -2.11894        2.69811       -1.13984
C         -1.07844        1.66479       -3.06097
H         -0.81068        1.15967       -1.12593
H         -3.01022        3.00751       -1.69827
H         -2.41106        2.51332       -0.10279
H         -1.40027        3.53505       -1.15408
H         -1.90235        1.93906       -3.72978
H         -0.30799        2.45207       -3.13301
H         -0.64833        0.72896       -3.43263
N          1.82874       -1.60849       -1.02435
C          1.05454       -2.19635       -2.14425
H          0.06983       -2.47109       -1.76980
H          0.95341       -1.44575       -2.92902
H          1.58853       -3.06902       -2.52662
C          3.15845       -1.11239       -1.46412
H          3.01237       -0.37228       -2.25095
H          3.64208       -0.64050       -0.60866
H          3.74649       -1.95470       -1.83477
C          1.95051       -2.54598        0.12557
H          2.45794       -2.02018        0.93487
H          0.94714       -2.82763        0.44105
H          2.52502       -3.41798       -0.19549
H          1.31189       -0.76163       -0.69398
