41
1sa1msa1tma1eda_219.log	Energy: -1085196.4360405
S         -1.00998       -1.78972       -0.69085
O          0.23723       -2.37457       -1.21521
O         -2.24889       -2.49636       -0.99360
O         -0.91331       -1.84918        0.91700
O         -1.10799       -0.32892       -1.02098
H         -0.03765       -1.48107        1.19117
H         -2.61414        0.01617       -0.90589
S          2.73222       -0.88161        0.66698
O          3.57280       -1.94561        1.17832
O          1.45103       -0.63825        1.35584
O          2.44921       -1.06644       -0.87791
H          1.60649       -1.60248       -1.04082
C          3.63274        0.64222        0.62501
H          3.93336        0.84813        1.65323
H          4.50979        0.49293       -0.00517
H          2.97170        1.42707        0.23598
H         -4.90306       -0.19178        1.00893
H         -3.40642       -1.16727        0.98274
H         -3.24200        0.73489        2.63495
H         -2.03705        0.82877        1.35025
H         -4.38750        2.53463        1.63827
H         -2.86507        2.92734        1.18610
H         -4.16768       -0.54041       -1.25377
H         -3.95211        1.08333       -0.81894
C         -3.83227       -0.18252        0.78695
C         -3.10660        0.91129        1.56169
N         -3.65957        0.11374       -0.66168
N         -3.58463        2.21896        1.10544
N          1.31170        2.72560       -0.52997
C          1.10631        2.12182       -1.83890
H          1.99605        2.27278       -2.45753
H          0.92879        1.05064       -1.72902
H          0.23675        2.56109       -2.36425
C          0.20251        2.43211        0.35867
H          0.08543        1.35028        0.44886
H          0.39980        2.85127        1.35087
H         -0.75135        2.85691       -0.02062
C          1.54714        4.15316       -0.63623
H          1.74476        4.57570        0.35381
H          2.41967        4.34047       -1.26923
H          0.68339        4.69015       -1.07529
