41
1sa1msa1tma1eda_175.log	Energy: -1085204.5326383
S          1.60743       -1.77120       -0.52648
O          2.70899       -0.97601        0.06541
O          1.34927       -3.02078        0.18627
O          0.40976       -0.95262       -0.79725
O          2.09246       -2.16206       -2.03001
H          2.84776       -2.76153       -1.95732
S          1.31188        2.33185        0.16827
O          1.52599        3.72977        0.47482
O          0.28618        1.59967        0.91698
O          2.70393        1.60544        0.33097
H          2.64884        0.60274        0.23291
C          0.95209        2.14906       -1.56478
H          0.02166        2.68578       -1.75537
H          1.77402        2.59131       -2.12730
H          0.83483        1.08403       -1.77368
H         -4.42905        0.88335       -2.20564
H         -3.76620        2.10946       -1.11639
H         -1.99771        1.05341       -2.46092
H         -1.75298        0.77173       -0.73755
H         -2.79080       -1.19707       -2.64032
H         -1.44477       -1.27906       -1.70448
H         -5.30207        0.68279        0.06499
H         -4.39258       -0.63248       -0.30289
C         -3.80926        1.03155       -1.30489
C         -2.40050        0.52088       -1.58492
N         -4.35677        0.36711       -0.12266
N         -2.40101       -0.93311       -1.74066
N         -0.97136       -0.79794        1.74380
C          0.14030       -1.00746        2.71044
H          0.83861       -1.73460        2.29470
H          0.63889       -0.05117        2.86499
H         -0.28149       -1.38196        3.64543
C         -1.95929        0.19165        2.25424
H         -1.43993        1.13087        2.43675
H         -2.74796        0.32891        1.50704
H         -2.38415       -0.20364        3.18006
C         -1.62750       -2.07875        1.36377
H         -2.33928       -1.87120        0.56262
H         -0.86102       -2.76769        1.00730
H         -2.13051       -2.48186        2.24531
H         -0.53671       -0.41367        0.88673
