33
1sa1msa1ma1dma_62.log	Energy: -1001157.4479559
S         -1.45305       -0.47989       -0.57574
O         -2.64209       -0.47301       -1.41965
O         -1.39449       -1.61092        0.38923
O         -0.15540       -0.40477       -1.31533
O         -1.47486        0.86212        0.29045
H         -2.45089        1.21419        0.33929
S          2.38278        1.45797        0.04535
O          3.63062        2.15824       -0.16217
O          2.43830        0.10746        0.63306
O          1.62550        1.39697       -1.32949
H          0.85976        0.72111       -1.32446
C          1.30829        2.43333        1.07143
H          1.22078        3.41931        0.61490
H          0.33787        1.93443        1.11798
H          1.77494        2.50240        2.05467
N         -3.99237        1.54533        0.25820
H         -4.28329        2.50590        0.40809
C         -4.74387        0.61819        1.11551
H         -5.82736        0.67179        0.96157
H         -4.40775       -0.39835        0.90099
H         -4.52414        0.83674        2.16298
H         -4.14936        1.31641       -0.72101
N          1.19861       -2.34138        0.39068
C          1.49887       -3.06623       -0.86206
C          1.63542       -3.02902        1.62050
H          1.63905       -1.40202        0.35616
H          1.00010       -4.03636       -0.84094
H          1.11746       -2.46861       -1.68946
H          2.57785       -3.20098       -0.95398
H          1.13176       -3.99412        1.69341
H          2.71658       -3.17295        1.59203
H          1.37100       -2.41036        2.47796
H          0.16348       -2.14180        0.43296
