36
1sa1msa2dma_16.log	Energy: -1025828.9035496
S          2.83992       -0.10738       -0.10286
O          3.26642       -1.27639       -0.86637
O          2.29429        0.99510       -0.93153
O          1.95917       -0.39775        1.05068
O          4.17216        0.49402        0.61743
H          4.90186        0.41874       -0.01188
S         -2.83578       -0.01005       -0.16559
O         -2.92079       -1.09668       -1.14928
O         -2.44099        1.31216       -0.73328
O         -1.95313       -0.36277        0.99691
C         -4.46567        0.22725        0.51916
H         -5.13218        0.51782       -0.29322
H         -4.78848       -0.71538        0.96132
H         -4.41443        1.01091        1.27494
N          0.01956        2.20315       -0.00379
C          0.04256        2.21216        1.47570
C          0.17764        3.53625       -0.61998
H          0.80565        1.60798       -0.34727
H         -0.72150        2.90318        1.83602
H         -0.17531        1.20395        1.82321
H          1.03150        2.52152        1.81625
H         -0.64937        4.17655       -0.30959
H          1.12916        3.96662       -0.30479
H          0.16854        3.42195       -1.70371
H         -0.89207        1.79086       -0.32227
N         -0.02673       -2.13224        0.28044
C          0.09177       -2.14863       -1.19763
C         -0.17610       -3.46823        0.88660
H          0.80219       -1.63685        0.67007
H         -0.82296       -2.56253       -1.62057
H          0.20935       -1.12255       -1.54653
H          0.97568       -2.72197       -1.47796
H         -1.07378       -3.94074        0.48545
H          0.70174       -4.07188        0.65116
H         -0.27063       -3.35671        1.96682
H         -0.83924       -1.52336        0.55152
