38
1sa1msa1dma1eda_384.log	Energy: -1060532.2963224
S          0.66536       -1.40223        0.19688
O          1.61361       -2.36615        0.76301
O         -0.13920       -0.64812        1.17910
O          1.35546       -0.46084       -0.75050
O         -0.33419       -2.27158       -0.67644
H          2.85739       -0.90291       -0.78873
H         -1.11152       -1.71395       -0.94353
S         -3.38189       -0.27843       -0.10494
O         -4.66253       -0.94362       -0.18855
O         -2.35475       -0.58131       -1.11811
O         -2.76966       -0.58074        1.32589
H         -1.77043       -0.59707        1.30029
C         -3.61085        1.47869       -0.08662
H         -4.02097        1.75523       -1.05902
H         -4.32103        1.70823        0.70817
H         -2.63055        1.94315        0.08958
N         -0.46925        2.29062        0.18624
C          0.10764        3.39577        0.92911
C         -0.22098        2.36191       -1.24238
H         -0.12992        1.40539        0.55204
H         -0.37902        4.33284        0.63443
H         -0.06180        3.24857        1.99873
H          1.19405        3.51478        0.76980
H         -0.73860        3.23298       -1.66247
H          0.84966        2.45573       -1.50043
H         -0.60836        1.46126       -1.72386
H          4.79451        0.96876       -1.29834
H          5.39937        1.57370        0.24313
H          5.57738       -0.77036        0.47749
H          4.06712       -0.37205        1.33520
H          4.32925       -1.58703       -1.33990
H          3.49984       -2.15739        0.00517
H          3.34841        2.68155       -0.24062
H          2.50542        1.26757       -0.26193
C          4.56720        1.03283       -0.21776
C          4.56551       -0.37616        0.36391
N          3.33461        1.73008        0.10604
N          3.80512       -1.32038       -0.50928
