27
1sa1msa1a1ma_140.log	Energy: -951824.3928088
S         -2.06632        0.21668        0.27346
O         -3.41381        0.30428        0.83132
O         -0.96031        0.49182        1.23187
O         -1.82254       -1.31923       -0.13554
O         -1.87868        1.01225       -0.97407
H         -2.71083       -1.72897       -0.38602
H         -0.43142        1.93068       -0.87765
S          2.81793       -0.76808       -0.15075
O          3.76811       -1.67484       -0.76644
O          2.57502        0.53720       -0.75396
O          3.34104       -0.46483        1.35612
H          4.11172       -1.02514        1.52737
C          1.26919       -1.56449        0.15571
H          0.64857       -0.91809        0.78342
H          0.78040       -1.70914       -0.80875
H          1.46847       -2.52185        0.63664
N         -4.34917       -2.13090       -0.59682
H         -4.68914       -1.34670       -0.04108
H         -4.69432       -2.99303       -0.18996
H         -4.72574       -2.04505       -1.53452
N          0.36743        2.27694       -0.29032
H          0.09564        1.84383        0.61423
C          0.46792        3.74649       -0.24130
H          1.26213        4.03647        0.44646
H          0.68726        4.12915       -1.23781
H         -0.48318        4.15174        0.10339
H          1.23345        1.81084       -0.59004
