39
1sa1msa1dma1tma_10.log	Energy: -1050489.8458308
S         -0.90497        1.96427       -0.46772
O         -0.81334        1.42318        0.91046
O         -0.93717        0.60750       -1.40095
O         -2.16128        2.61861       -0.79173
O          0.32620        2.69306       -0.85414
H          1.64062        2.13553        0.06626
S          1.35355       -1.87122       -0.20890
O         -0.04727       -2.32875       -0.10490
O          2.05715       -1.68794        1.07061
O          1.45879       -0.62955       -1.06352
H         -0.04661        0.17251       -1.37880
C          2.22670       -3.13302       -1.12166
H          2.18058       -4.05650       -0.54375
H          1.73933       -3.25773       -2.08875
H          3.26067       -2.81216       -1.24947
N          2.36649        1.48891        0.45824
C          2.23381        1.38461        1.92722
C          3.70618        1.87641       -0.01907
H          2.10487        0.58216        0.01560
H          2.54329        2.32889        2.37927
H          1.18483        1.18871        2.14586
H          2.85148        0.55863        2.27988
H          3.96413        2.85775        0.38220
H          4.43446        1.13538        0.31420
H          3.68968        1.91644       -1.10840
N         -2.62864       -0.93125        0.40787
C         -3.68950        0.11199        0.41276
H         -3.32990        0.97038        0.97744
H         -3.87935        0.42619       -0.61295
H         -4.58809       -0.31353        0.86458
C         -3.04106       -2.12121       -0.37815
H         -3.26919       -1.79904       -1.39456
H         -2.21300       -2.82726       -0.39147
H         -3.92730       -2.55869        0.08646
C         -2.20721       -1.28572        1.78913
H         -1.40243       -2.01614        1.71992
H         -1.84172       -0.37602        2.26396
H         -3.07163       -1.68937        2.32129
H         -1.80516       -0.52565       -0.07358
