35
1sa1msa1ma1eda_255.log	Energy: -1035881.3004616
S         -0.10755       -1.80524        0.00512
O         -1.41353       -2.26622       -0.50660
O          1.01319       -2.71678       -0.16313
O          0.31697       -0.54626       -0.98901
O         -0.20402       -1.18397        1.34585
H         -0.41905        0.11142       -0.96615
H          1.59169       -0.13095        1.63357
S         -3.08435        0.76934       -0.12832
O         -4.17796        1.66110       -0.43937
O         -1.72832        1.16152       -0.55189
O         -3.42883       -0.64306       -0.73721
H         -2.65486       -1.28973       -0.66053
C         -3.02749        0.46241        1.62234
H         -2.84074        1.42089        2.10842
H         -3.99559        0.06137        1.92222
H         -2.21406       -0.24119        1.81847
N          2.44359        2.91908        0.61447
H          2.24869        3.62431        1.31741
C          1.44632        2.96774       -0.46677
H          1.36109        3.95054       -0.94322
H          1.72766        2.24004       -1.23282
H          0.46434        2.68361       -0.07939
H          3.37021        3.09976        0.24072
H          4.12319       -0.44673        1.63489
H          3.08271       -1.76040        1.01555
H          4.90240       -1.37452       -0.57229
H          3.34071       -0.96727       -1.27756
H          5.36954        0.94480       -0.38637
H          4.61714        0.85038       -1.82861
H          2.47510        1.18600        0.96833
H          1.68630        0.04161        0.03689
C          3.43212       -0.74105        0.83997
C          4.07836       -0.64942       -0.53379
N          2.24994        0.15468        0.90004
N          4.48333        0.72650       -0.83134
