27
1sa1msa1a1ma_01.log	Energy: -951848.2554439
S          2.24047       -0.53302        0.27825
O          1.30225        0.08055        1.45409
O          3.56180       -0.02287        0.56844
O          2.03348       -1.98794        0.28178
O          1.63623        0.06314       -0.98531
H          0.46418       -2.49242       -0.83885
H          0.97126        1.55324       -0.60422
S         -2.22266       -0.17429        0.14263
O         -2.31216       -0.84916       -1.18089
O         -2.05240        1.30025        0.03236
O         -1.19846       -0.80954        1.01254
H          0.39362       -0.30730        1.37966
C         -3.79626       -0.42100        0.93691
H         -3.95285       -1.49345        1.05174
H         -3.76519        0.07108        1.90893
H         -4.56643        0.01845        0.30311
N          0.07963       -2.04810       -1.68517
H          0.67430       -1.19358       -1.76620
H         -0.90840       -1.73064       -1.53128
H          0.17010       -2.65753       -2.49173
N          0.45881        2.32451       -0.10346
H         -0.53404        1.99039       -0.02341
C          0.56527        3.63169       -0.77937
H          0.04170        4.39000       -0.19737
H          1.61577        3.90125       -0.88648
H          0.10557        3.55073       -1.76385
H          0.85631        2.32228        0.83707
