35
1sa1msa1ma1eda_222.log	Energy: -1035884.6208150
S          2.62218       -0.26297       -0.44961
O          2.70026       -1.56138        0.23785
O          3.82131        0.24438       -1.07606
O          1.40531       -0.21003       -1.33737
O          2.22337        0.71814        0.79943
H          2.12734        1.64460        0.52050
S         -0.77164        1.96736        0.26438
O          0.30525        2.92967        0.46371
O         -0.98096        0.98508        1.34156
O         -0.60160        1.23235       -1.10907
H          0.28643        0.69148       -1.18548
C         -2.31802        2.77694       -0.02872
H         -2.56564        3.32364        0.88176
H         -2.19692        3.45720       -0.87122
H         -3.05163        1.99314       -0.23477
N          0.22012       -1.53625        1.47621
H         -0.33290       -1.79234        0.60883
H          1.21954       -1.66813        1.21630
C         -0.18802       -2.31744        2.65682
H          0.40120       -2.01083        3.52089
H         -1.24583       -2.14186        2.85561
H         -0.02336       -3.37746        2.46286
H          0.06361       -0.52591        1.60986
H         -3.34715       -2.72759       -0.29807
H         -4.23749       -1.69688       -1.42353
H         -2.31155       -2.25978       -2.62900
H         -1.95097       -0.64504       -2.00284
H         -0.82304       -3.17770       -1.13822
H         -0.06338       -1.77065       -1.47442
H         -4.08252       -0.72530        0.82039
H         -2.47465       -0.49674        0.60424
C         -3.33534       -1.74657       -0.80404
C         -2.11446       -1.68627       -1.71476
N         -3.35967       -0.61316        0.11828
N         -0.89590       -2.16915       -1.03681
