32
1sa1msa1a1eda_157.log	Energy: -1011231.6378325
S          0.77100        1.77852       -0.11696
O         -0.00111        1.79227        1.12124
O          2.22037        1.60883        0.01832
O          0.22286        0.81775       -1.13498
O          0.51567        3.24894       -0.74408
H          1.09866        3.36241       -1.50727
S         -2.81233       -0.69513       -0.08595
O         -1.73740       -1.57944        0.37800
O         -4.08172       -1.27715       -0.46023
O         -2.29882        0.13560       -1.33490
H         -1.34749        0.43787       -1.23032
C         -3.05551        0.55191        1.15699
H         -3.40546        0.04417        2.05660
H         -2.10103        1.05509        1.32957
H         -3.81010        1.24708        0.78904
N          1.46344       -0.61404        2.44587
H          1.13385       -1.07240        3.28848
H          1.02664        0.30585        2.38815
H          2.46855       -0.48698        2.51921
H          2.32716       -3.27900        0.13971
H          1.67284       -3.06535       -1.50345
H          4.04289       -2.39966       -1.37218
H          3.01391       -1.04304       -1.83427
H          4.80481       -0.86257        0.08293
H          3.39249       -0.04713        0.19441
H          0.07320       -2.14416       -0.00090
H          1.21418       -1.33282        0.91350
C          2.06335       -2.54490       -0.62487
C          3.28236       -1.70738       -0.99862
N          0.98923       -1.68864       -0.07276
N          3.80172       -0.97993        0.15494
H          0.81550       -0.84741       -0.65090
