28
1sa1msa1eda_152.log	Energy: -975722.0926245
S         -0.62070       -1.06807       -0.19357
O          0.23245       -0.59858       -1.29986
O         -1.69973       -1.98140       -0.58290
O          0.29712       -1.92381        0.78582
O         -1.15011        0.07956        0.62035
H          1.14212       -1.43705        0.94881
H         -2.67338       -0.21283        0.83650
S          3.27276        0.31917        0.03620
O          4.33236       -0.39954       -0.64073
O          2.50956       -0.38890        1.07485
O          2.26156        0.96027       -0.99394
H          1.45569        0.36404       -1.13917
C          3.93544        1.80091        0.75633
H          4.68150        1.48934        1.48779
H          4.39762        2.38631       -0.03829
H          3.12360        2.34834        1.23337
H         -4.45182        1.84719        1.23207
H         -5.18036        2.24353       -0.32305
H         -5.51820       -0.09012       -0.13037
H         -4.10826        0.06278       -1.21136
H         -4.10357       -0.71936        1.63042
H         -3.45243       -1.52402        0.30587
H         -3.03224        3.25681       -0.25419
H         -2.26943        1.80878       -0.05716
C         -4.33657        1.72157        0.13886
C         -4.48075        0.24308       -0.20117
N         -3.10823        2.26036       -0.41548
N         -3.66580       -0.60541        0.71889
