39
1sa1msa1dma1tma_92.log	Energy: -1050469.8669961
S         -0.02829       -0.43722        0.90150
O         -0.32272        0.89505        0.30046
O         -0.31651       -1.53599       -0.03682
O          1.33999       -0.49392        1.45906
O         -0.96419       -0.59312        2.17562
H         -1.89685       -0.42556        1.89303
S         -3.70100        0.24297       -0.31538
O         -5.01005        0.75767       -0.64446
O         -3.39134       -0.05863        1.08825
O         -2.62851        1.26819       -0.86744
H         -1.73731        1.14562       -0.41369
C         -3.38159       -1.22909       -1.26142
H         -4.10198       -1.97894       -0.93193
H         -3.52866       -0.99151       -2.31495
H         -2.35860       -1.55163       -1.05383
N          2.61807        1.92134       -0.14232
C          2.75213        3.02711       -1.08037
C          3.24657        2.20397        1.14207
H          1.62812        1.74091        0.01871
H          3.80923        3.17289       -1.33258
H          2.21144        2.80004       -2.00419
H          2.36784        3.98210       -0.68573
H          4.33465        2.27284        1.01596
H          2.90394        3.14971        1.59259
H          3.02044        1.39305        1.83849
N          2.95979       -1.29789       -0.53162
C          4.37248       -0.87864       -0.38415
H          4.40980        0.20109       -0.53241
H          4.71002       -1.12755        0.62267
H          4.98221       -1.40226       -1.12405
C          2.75742       -2.74558       -0.26975
H          3.13976       -2.97618        0.72469
H          1.68543       -2.94548       -0.30193
H          3.29055       -3.32547       -1.02636
C          2.40154       -0.89536       -1.84849
H          1.34315       -1.15797       -1.86412
H          2.52142        0.18394       -1.93873
H          2.94391       -1.42088       -2.63821
H          2.40037       -0.80340        0.21154
