30
1sa1msa2ma_111.log	Energy: -976488.9064974
S          0.83767        1.34998       -0.50744
O          0.71273        0.44891       -1.65559
O          0.49724        0.63660        0.77736
O          2.13773        2.02756       -0.37714
O         -0.22561        2.52329       -0.66316
H         -1.11579        2.10400       -0.68219
S         -2.75029       -0.38287        0.08959
O         -3.26003       -1.36942       -0.83877
O         -2.49961        0.98230       -0.38434
O         -1.44529       -0.94108        0.77664
H         -0.66978       -0.25465        0.76659
C         -3.87142       -0.26815        1.46731
H         -4.82289        0.09336        1.07561
H         -3.98659       -1.26199        1.89953
H         -3.46046        0.43360        2.19284
N          1.78067       -2.01157       -0.37956
H          1.08767       -2.26958        0.31850
C          2.25694       -3.20278       -1.09200
H          1.44939       -3.76312       -1.57564
H          2.96891       -2.89827       -1.86323
H          2.77440       -3.86953       -0.39693
H          1.28783       -1.38278       -1.02086
N          3.50730       -0.14693        0.63935
H          3.17344        0.73939        0.19491
H          2.87697       -0.94854        0.23915
C          3.33883       -0.05453        2.10784
H          3.60499       -1.00778        2.56601
H          3.96879        0.74132        2.50536
H          2.29021        0.17705        2.29488
H          4.47568       -0.30908        0.37350
