30
1sa1msa1a1dma_120.log	Energy: -976476.1517462
S         -2.63026        0.53770       -0.49195
O         -1.35732        1.22425       -0.68873
O         -3.79947        0.99263       -1.20481
O         -2.44989       -0.98804       -0.85991
O         -2.89781        0.53405        1.04910
H         -1.57554       -1.32001       -0.51499
H         -3.90213        0.31371        1.22352
S          1.19593       -1.02139        0.00641
O          1.89661       -1.23899       -1.24290
O         -0.11275       -1.67577        0.18083
O          1.00871        0.53612        0.27790
H          0.12596        0.84428       -0.07071
C          2.23794       -1.44146        1.37115
H          2.47230       -2.50141        1.26602
H          3.13483       -0.81511        1.27672
H          1.69254       -1.24735        2.29401
N         -5.44846        0.05198        1.28638
H         -5.93542        0.52574        2.04035
H         -5.69207       -0.93308        1.32027
H         -5.78351        0.42762        0.40182
N          4.26586        0.81055        0.19165
C          5.05319        0.19696       -0.86867
C          4.98365        1.85855        0.89998
H          3.41126        1.19209       -0.20239
H          5.90525       -0.33208       -0.42739
H          4.43550       -0.52792       -1.40398
H          5.45026        0.92633       -1.59533
H          5.83827        1.42097        1.42747
H          5.36974        2.65152        0.23658
H          4.32689        2.31769        1.64386
