29
1sa1msa1tma_23.log	Energy: -965658.6795830
S         -1.03986        1.60612       -0.02304
O         -1.11703        0.93912        1.27931
O          0.24630        2.28627       -0.30418
O         -1.48398        0.74193       -1.13457
O         -2.11854        2.81365        0.09656
H         -1.94571        3.44204       -0.61764
S          2.38721       -0.35980       -0.09472
O          3.65269       -1.02533       -0.31720
O          1.14933       -1.10517       -0.34099
O          2.38921        0.95654       -0.96798
H          1.53897        1.47262       -0.82286
C          2.31179        0.25731        1.57492
H          2.38154       -0.60617        2.23810
H          3.15882        0.92591        1.72760
H          1.36041        0.77552        1.71284
N         -1.66728       -1.78911       -0.02587
C         -1.10449       -2.25414        1.26718
H         -0.04268       -2.44461        1.12572
H         -1.24002       -1.45679        1.99746
H         -1.63178       -3.16126        1.57094
C         -3.11693       -1.48921        0.09217
H         -3.24517       -0.74509        0.87817
H         -3.46490       -1.07407       -0.85254
H         -3.65059       -2.41045        0.33516
C         -1.37583       -2.72751       -1.13807
H         -1.76578       -2.29702       -2.06052
H         -0.29496       -2.83830       -1.21604
H         -1.85654       -3.68625       -0.93227
H         -1.21932       -0.88819       -0.28359
