35
1sa1msa1ma1eda_115.log	Energy: -1035886.2414273
S          0.70358        2.29897        0.11832
O          0.87204        3.73598        0.22535
O          1.81441        1.45679        0.60570
O         -0.59034        1.76985        0.63836
O          0.65419        1.97274       -1.48882
H          0.54719        2.81808       -1.94435
S         -2.62542       -0.68469       -0.22720
O         -3.12632       -0.86382        1.12615
O         -1.33927       -1.33140       -0.53352
O         -2.56502        0.83315       -0.62440
H         -1.77364        1.29114       -0.15852
C         -3.83086       -1.24477       -1.40139
H         -4.75621       -0.69605       -1.22771
H         -3.44557       -1.06646       -2.40457
H         -3.97525       -2.31025       -1.22111
N          0.65118       -0.93345        1.47216
H          1.12416       -0.03467        1.25002
H         -0.07876       -1.06344        0.75269
C          0.04381       -0.90227        2.81765
H         -0.47356       -1.84356        3.00187
H          0.82551       -0.75253        3.56251
H         -0.67177       -0.08157        2.85833
H          1.36043       -1.69995        1.32149
H          3.22865       -3.28519       -1.39884
H          1.47843       -3.23057       -1.10890
H          2.33606       -1.30986       -2.49156
H          1.47323       -0.80256       -1.06059
H          4.26619       -0.43332       -1.58849
H          3.25815        0.37897       -0.56608
H          2.79577       -3.66628        0.92280
H          3.48056       -2.17889        0.74158
C          2.42836       -2.73503       -0.88244
C          2.39245       -1.29131       -1.39578
N          2.63562       -2.72691        0.57445
N          3.54032       -0.54071       -0.89193
