30
1sa1msa1a1dma_31.log	Energy: -976497.6212108
S          1.87915        0.00514       -0.44864
O          2.37625       -1.10139       -1.25736
O          0.84716       -0.42441        0.56557
O          3.08283        0.56846        0.42635
O          1.37981        1.18620       -1.18614
H          3.68981       -0.20536        0.67030
H          0.02349        1.72146       -0.43190
S         -2.35300       -0.97674        0.03571
O         -2.48283       -0.41885       -1.30427
O         -2.36375        0.01141        1.13038
O         -1.10247       -1.89865        0.16519
H         -0.22526       -1.32952        0.28543
C         -3.64086       -2.16302        0.31803
H         -3.56682       -2.92947       -0.45315
H         -3.50873       -2.58915        1.31183
H         -4.58909       -1.63040        0.24239
N          4.54535       -1.65511        0.76124
H          5.55259       -1.61421        0.65187
H          4.14244       -2.07177       -0.07679
H          4.33212       -2.25597        1.55003
N         -0.72727        2.13394        0.18350
C         -1.69211        2.88399       -0.64611
C         -0.04557        2.92479        1.22908
H         -1.22092        1.33845        0.62573
H         -1.16417        3.67511       -1.18046
H         -2.14194        2.18582       -1.35274
H         -2.46377        3.31317       -0.00486
H          0.49950        3.74289        0.75664
H         -0.78428        3.31710        1.93001
H          0.65544        2.26896        1.74570
