33
1sa1msa1a1tma_58.log	Energy: -1001153.4861435
S          0.45722        1.51898       -0.23343
O          0.25338        0.67734       -1.60705
O          0.68833        0.46823        0.80986
O          1.62304        2.34577       -0.49417
O         -0.81111        2.23322        0.00804
H         -2.24618        1.54332        0.01655
S         -2.90105       -0.51152        0.09306
O         -4.19223       -1.14803       -0.02476
O         -3.12534        1.04843        0.04995
O         -1.85033       -0.87447       -0.87345
H         -0.57434        0.15143       -1.50839
C         -2.23494       -0.78345        1.72051
H         -2.95187       -0.39891        2.44586
H         -2.11185       -1.86085        1.84042
H         -1.27263       -0.26958        1.78384
N          3.66329        1.08478        1.45616
H          4.48424        1.54123        1.84109
H          2.96637        1.04620        2.19504
H          3.26273        1.71049        0.75646
N          2.25156       -1.47739       -0.17083
C          1.24558       -2.39682       -0.75606
H          0.53482       -2.68508        0.01824
H          0.71154       -1.87611       -1.54879
H          1.75374       -3.27843       -1.15298
C          3.15535       -0.91215       -1.20725
H          2.54856       -0.36155       -1.92632
H          3.84792       -0.23482       -0.70803
H          3.68901       -1.73144       -1.69506
C          3.01514       -2.11268        0.93030
H          3.67751       -1.35356        1.34976
H          2.31201       -2.46085        1.68823
H          3.58126       -2.95775        0.53144
H          1.71168       -0.66810        0.24890
