41
1sa1msa1tma1eda_56.log	Energy: -1085218.4452888
S          3.16598       -0.15255       -0.06414
O          3.48364       -1.57626       -0.19096
O          2.61609        0.51521       -1.24269
O          2.34732        0.12971        1.15785
O          4.58851        0.60898        0.18626
H          5.13361        0.03127        0.73604
S         -2.94177       -0.09941       -0.09615
O         -3.02507       -1.25496       -1.00589
O         -2.85740        1.22452       -0.72590
O         -1.80450       -0.29753        0.89653
C         -4.42239       -0.11184        0.90212
H         -5.27118        0.03670        0.23388
H         -4.49599       -1.07597        1.40533
H         -4.35875        0.69932        1.62752
H          1.21951        2.56805       -0.86697
H         -0.19128        1.62305       -1.35779
H         -0.62784        4.09563       -1.54798
H         -1.73519        3.27427       -0.43920
H          0.54341        4.94938        0.35615
H         -1.01945        5.06323        0.82629
H          1.03560        1.12911        0.88999
H          0.11981        2.46166        1.40317
C          0.17987        2.33927       -0.62523
C         -0.69679        3.58467       -0.57949
N          0.16867        1.69789        0.71744
N         -0.29173        4.41063        0.56176
H         -0.64989        1.06812        0.83543
N         -0.35598       -2.45898        0.08220
C          0.68817       -2.68618        1.11596
H          1.20931       -1.74796        1.31120
H          0.20003       -3.04773        2.02209
H          1.40569       -3.41988        0.74560
C         -1.19932       -3.65881       -0.13473
H         -1.62572       -3.96778        0.82051
H         -2.00010       -3.39127       -0.82361
H         -0.57661       -4.45925       -0.54012
C          0.21447       -1.96472       -1.20084
H         -0.60880       -1.82333       -1.90125
H          0.72349       -1.01679       -1.03082
H          0.93947       -2.69003       -1.57325
H         -0.97593       -1.68703        0.43435
