35
1sa1msa1ma1eda_182.log	Energy: -1035885.1735693
S         -0.82190        1.11027       -0.58776
O         -0.73399       -0.36241       -0.86204
O         -0.51999        1.39719        0.83888
O         -0.00423        1.90604       -1.51684
O         -2.32002        1.50161       -0.84084
H         -2.89464        1.10680       -0.06555
S          2.42427       -1.45459        0.14643
O          1.78059       -1.69926        1.42539
O          3.19710       -0.20099        0.03019
O          1.42683       -1.57422       -1.04584
H          0.53217       -1.03514       -0.93296
C          3.52941       -2.78496       -0.25254
H          2.96364       -3.71575       -0.22595
H          3.94797       -2.60510       -1.24214
H          4.31129       -2.78459        0.50720
N          2.01770        2.28168        0.31532
H          1.20265        2.08252        0.92539
H          2.55510        1.39259        0.24953
C          2.83649        3.42902        0.74679
H          3.63736        3.58929        0.02540
H          2.20961        4.31878        0.80239
H          3.26506        3.21809        1.72616
H          1.55415        2.41394       -0.60160
H         -5.10875       -1.63867        0.44444
H         -3.81053       -2.81449        0.51159
H         -3.57098       -1.30101        2.37141
H         -2.20942       -1.06808        1.25843
H         -4.55885        0.69533        1.34405
H         -3.07295        1.02651        1.95277
H         -4.05863       -0.56972       -1.36313
H         -2.69525       -1.43719       -1.21191
C         -4.02497       -1.75828        0.31084
C         -3.28925       -0.93644        1.37377
N         -3.70274       -1.47472       -1.07725
N         -3.56599        0.50665        1.23070
