32
1sa1msa1a1eda_240.log	Energy: -1011228.9866427
S         -0.57906        0.89417       -0.56980
O         -0.24929       -0.60243       -0.47892
O          0.52278        1.61260       -1.24720
O         -1.88117        0.98100       -1.30936
O         -0.75249        1.40982        0.83702
H         -2.61709       -0.33240       -1.03135
H          0.60983        2.16543        1.21035
S          3.14299       -0.83857        0.22065
O          4.18883       -1.80209        0.49923
O          3.28868        0.48609        0.86051
O          1.76967       -1.46395        0.60113
H          0.90689       -1.01413        0.14869
C          3.02258       -0.55726       -1.53362
H          3.97668       -0.13464       -1.85115
H          2.84904       -1.51889       -2.01661
H          2.20147        0.14068       -1.72097
N          1.58561        2.58447        1.09082
H          1.81663        3.28670        1.78562
H          1.56607        2.96572        0.14261
H          2.27232        1.79547        1.08650
H         -3.40080       -1.96947        1.34162
H         -2.37694       -0.50715        1.27851
H         -4.71732        0.08086        1.94972
H         -4.25711        0.81741        0.41174
H         -6.07334       -1.45106        0.75642
H         -6.24677       -0.12358       -0.18124
H         -2.13236       -1.88188       -0.70314
H         -3.78188       -1.62670       -1.04675
C         -3.24134       -1.01028        0.84061
C         -4.48556       -0.13494        0.89941
N         -2.94001       -1.26828       -0.59060
N         -5.57249       -0.79268        0.16950
