33
1sa1msa1a1tma_79.log	Energy: -1001134.9166825
S         -0.84693        0.63673       -0.05426
O         -1.84448        1.29785        1.01980
O          0.39073        0.30361        0.72620
O         -1.48936       -0.52425       -0.64647
O         -0.58166        1.77336       -0.96527
H         -3.55587       -1.12438       -0.51388
H          0.94729        2.19627       -0.87068
S          3.38342       -0.62710       -0.01364
O          3.66678        0.43015        0.95602
O          3.23165       -0.16658       -1.40218
O          2.14107       -1.47266        0.42459
H          1.32728       -0.84985        0.53805
C          4.63609       -1.87695        0.04994
H          5.57080       -1.40337       -0.25088
H          4.69775       -2.24738        1.07270
H          4.36099       -2.67060       -0.64408
N          2.00307        2.30936       -0.75518
H          2.24304        2.13110        0.22472
H          2.32113        3.23048       -1.04220
H          2.47683        1.56446       -1.29391
N         -4.49044       -0.99596       -0.13646
C         -2.33122        0.42941        2.06291
H         -1.49064       -0.03972        2.58145
H         -2.86578        1.09051        2.74404
H         -3.01593       -0.31633        1.64812
C         -4.96683        0.32737       -0.50147
H         -4.23326        1.07827       -0.19547
H         -5.14937        0.44733       -1.58432
H         -5.90805        0.53634        0.02073
C         -5.36871       -2.05684       -0.59417
H         -5.56874       -2.02676       -1.68087
H         -4.93064       -3.02912       -0.35242
H         -6.33311       -1.98502       -0.07796
