38
1sa1msa1dma1eda_67.log	Energy: -1060561.4616824
S          2.66980        0.41527       -0.37236
O          2.71514       -1.00371       -0.79014
O          2.23103        1.32389       -1.45124
O          1.97336        0.62725        0.90108
O          4.20851        0.82566       -0.04068
H          4.72696        0.72238       -0.85013
S         -2.34249       -0.98521       -0.45863
O         -1.88810       -2.07058       -1.33867
O         -2.38668        0.35962       -1.10238
O         -1.57100       -0.92915        0.82525
C         -4.03167       -1.34450       -0.00571
H         -4.62721       -1.35567       -0.91894
H         -4.05457       -2.32120        0.47799
H         -4.38336       -0.56943        0.67533
N          0.77040       -2.33567        0.66487
C          0.47193       -3.67046        0.10464
C          1.36102       -2.35054        2.01984
H          1.43572       -1.84130        0.03331
H         -0.18324       -4.20774        0.79232
H         -0.04077       -3.53181       -0.84694
H          1.40650       -4.21795       -0.02831
H          0.64476       -2.78875        2.71674
H          2.28042       -2.93833        2.00402
H          1.58633       -1.32038        2.29588
H         -0.11283       -1.76953        0.69225
H         -0.09285        4.04689       -0.38633
H         -1.32041        3.43180       -1.51609
H         -2.42829        4.42558        0.47876
H         -2.72048        2.68237        0.38471
H         -0.91931        4.00937        2.26799
H         -1.99273        2.79272        2.53096
H          0.57359        1.84678       -0.99705
H         -0.02740        1.76454        0.54139
C         -0.88819        3.30875       -0.52106
C         -1.95163        3.43988        0.56563
N         -0.28974        1.96140       -0.43372
N         -1.33940        3.18092        1.86378
H         -1.00329        1.24951       -0.72227
