38
1sa1msa1dma1eda_45.log	Energy: -1060563.6420080
S          2.64705       -0.61961       -0.31659
O          2.05139       -1.56636       -1.28508
O          2.73452        0.75883       -0.85201
O          2.08015       -0.69516        1.02879
O          4.18454       -1.11393       -0.12086
H          4.60643       -1.12910       -0.99060
S         -2.28044        1.12730       -0.41338
O         -2.52412       -0.20314       -1.03700
O         -1.77262        2.15328       -1.33467
O         -1.42952        0.99769        0.81594
C         -3.87997        1.67391        0.16228
H         -4.25931        0.94383        0.87751
H         -3.75665        2.64825        0.63546
H         -4.54151        1.74765       -0.70117
N          0.95823        2.31891        0.55844
C          1.56314        2.38364        1.90552
C          0.73693        3.63307       -0.08023
H          1.58353        1.74311       -0.04741
H          0.88885        2.92054        2.57471
H          1.72160        1.36241        2.25202
H          2.52127        2.90224        1.84222
H          0.10539        4.24315        0.56783
H          1.70058        4.12219       -0.23242
H          0.22549        3.47019       -1.02817
H          0.04537        1.80674        0.62463
H          0.18247       -2.81536        1.09749
H         -0.62324       -1.23793        1.19874
H         -2.07627       -3.04276        2.18240
H         -2.81817       -2.27615        0.76913
H         -1.56275       -4.92395        0.80862
H         -3.03966       -4.49819        0.24695
H          0.37871       -1.87686       -1.01811
H         -0.89993       -2.98644       -1.12120
C         -0.68144       -2.23606        0.76355
C         -1.99852       -2.92449        1.09405
N         -0.59365       -2.09695       -0.71329
N         -2.08266       -4.18358        0.34952
H         -1.25712       -1.34541       -1.01376
