42
1sa1msa2tma_49.log	Energy: -1075124.9309443
S         -1.13340       -0.68929       -0.73740
O          0.11309       -0.43628       -1.48446
O         -2.24315       -1.26180       -1.49517
O         -0.80599       -1.79442        0.37478
O         -1.56014        0.53574        0.01680
H          0.08309       -1.62031        0.77760
H         -3.06696        0.41216        0.28809
S          2.86114       -1.52909        0.38541
O          3.66318       -2.69498        0.68459
O          1.67635       -1.25139        1.21559
O          2.40255       -1.63189       -1.12600
H          1.52762       -1.16541       -1.28513
C          3.87870       -0.07880        0.40416
H          4.26593        0.02494        1.41909
H          4.69493       -0.24278       -0.30015
H          3.26219        0.78842        0.12303
N         -4.11859        0.27667        0.48016
C         -4.27444       -1.10701        0.99708
H         -3.90406       -1.79740        0.23901
H         -3.67355       -1.21239        1.90072
H         -5.32864       -1.29308        1.21642
C         -4.51519        1.29141        1.48047
H         -3.92530        1.14517        2.38576
H         -4.31649        2.28397        1.07515
H         -5.57905        1.18603        1.70640
C         -4.81961        0.45853       -0.81445
H         -4.63543        1.47191       -1.17274
H         -4.40412       -0.25696       -1.52429
H         -5.89113        0.29871       -0.67100
N          2.08578        2.57421       -0.07791
C          1.14546        2.44407        1.02342
H          0.41823        1.66079        0.80085
H          1.68208        2.17363        1.93899
H          0.59463        3.38684        1.21032
C          3.05256        3.62586        0.17348
H          3.58873        3.42244        1.10657
H          3.78334        3.66494       -0.64037
H          2.57969        4.62319        0.26215
C          1.39842        2.76868       -1.34471
H          2.13006        2.79965       -2.15811
H          0.71722        1.93384       -1.52383
H          0.82049        3.71313       -1.36417
