41
1sa1msa1tma1eda_171.log	Energy: -1085205.6139500
S          0.11679        1.39802        0.43621
O          1.31404        2.25620        0.46351
O         -1.16519        2.06341        0.61959
O          0.01917        0.78023       -1.05526
O          0.28331        0.20558        1.32879
H          0.87958        0.34510       -1.25931
H         -1.19040       -0.56085        1.40026
S          3.62718       -0.21781       -0.37313
O          4.90667       -0.62277       -0.90684
O          2.41814       -0.49385       -1.16682
O          3.70099        1.32946       -0.06867
H          2.79059        1.71223        0.12794
C          3.38165       -0.94499        1.23124
H          3.30490       -2.02384        1.08763
H          4.24371       -0.69449        1.84929
H          2.45343       -0.54613        1.64676
H         -1.45232       -1.75935       -1.09872
H         -1.39728       -3.50892       -0.84578
H         -3.08102       -2.74578        0.63169
H         -1.65240       -3.03724        1.65862
H         -2.73203       -0.43319        0.61471
H         -2.58910       -0.93922        2.22849
H          0.81502       -2.73646       -0.81802
H          0.51984       -1.61183        0.31137
C         -1.17005       -2.54606       -0.37793
C         -2.06038       -2.42246        0.85334
N          0.23755       -2.53565       -0.00871
N         -2.14084       -1.00842        1.31714
N         -3.85245        0.28540       -0.42128
C         -3.21891        0.77518       -1.64952
H         -2.43907        1.49162       -1.39195
H         -2.75603       -0.05967       -2.18249
H         -3.95714        1.25271       -2.31333
C         -4.89488       -0.69081       -0.72795
H         -4.46584       -1.52106       -1.29714
H         -5.32352       -1.08536        0.19940
H         -5.71065       -0.24957       -1.32265
C         -4.38958        1.40198        0.36046
H         -4.83562        1.02171        1.28564
H         -3.57546        2.08450        0.61206
H         -5.16667        1.94946       -0.19590
