28
1sa1msa1eda_59.log	Energy: -975730.7928174
S         -2.21375       -0.44138        0.03110
O         -2.16866        0.90468       -0.59162
O         -1.91212       -1.51244       -0.95205
O         -1.47742       -0.55773        1.28388
O         -3.76159       -0.65206        0.44941
H         -4.31395       -0.46848       -0.32297
S          1.10167        1.98710       -0.06100
O          2.15609        2.95076       -0.28479
O          1.44209        0.55829       -0.15746
O         -0.05949        2.31154       -1.07527
H         -0.86823        1.72379       -0.92701
C          0.35744        2.23864        1.53402
H          1.14400        2.09841        2.27663
H         -0.02712        3.25789        1.56922
H         -0.43501        1.49793        1.66562
H          0.78217       -1.62347        1.08749
H          0.43018       -3.30284        0.67453
H          2.77987       -2.90469        1.60760
H          2.72281       -3.78009        0.07617
H          3.23454       -0.88173        0.19658
H          4.33008       -2.05861       -0.16789
H         -0.31505       -1.87579       -1.04067
H          1.15460       -1.06425       -1.08510
C          1.06482       -2.44873        0.43226
C          2.54560       -2.80094        0.53763
N          0.72843       -1.99229       -0.94543
N          3.34653       -1.81975       -0.17952
H          1.09134       -2.62346       -1.65734
