30
1sa1msa2ma_124.log	Energy: -976480.5245836
S         -1.45469       -0.06238       -0.57475
O         -1.45020       -1.27321        0.26241
O         -0.35360        0.02196       -1.54635
O         -2.79494       -0.08285       -1.42772
O         -1.51009        1.19094        0.25927
H         -3.54186       -0.42614       -0.82497
H         -0.26264        1.99776       -0.12162
S          2.73030       -0.63132        0.25899
O          2.71162        0.39595       -0.78584
O          2.47870       -0.22650        1.62586
O          4.21037       -1.29864        0.17913
H          4.75290       -0.75213       -0.40707
C          1.73206       -2.02967       -0.16060
H          1.90242       -2.26362       -1.21056
H          2.03758       -2.84551        0.49522
H          0.68557       -1.75859        0.01090
N         -4.46929       -1.03394        0.41099
H         -5.33670       -1.51283        0.19449
C         -4.66651        0.00153        1.43328
H         -5.05309       -0.39109        2.38178
H         -3.70885        0.49468        1.61491
H         -5.36433        0.75174        1.05329
H         -3.79683       -1.72553        0.73581
N          0.68329        2.41812       -0.43423
H          1.20119        1.62473       -0.84154
C          1.42365        3.00807        0.70065
H          2.38544        3.39120        0.35916
H          0.83031        3.81107        1.13793
H          1.58762        2.22459        1.44053
H          0.50315        3.08880       -1.17753
