32
1sa1msa1a1eda_152.log	Energy: -1011229.0528136
S         -1.73945       -0.27325        0.45881
O         -1.66005        0.44072       -0.81346
O         -1.28386       -1.75580        0.26580
O         -1.04847        0.34923        1.57929
O         -3.23077       -0.49001        0.85969
H         -3.69345       -1.04415        0.11702
S          2.23496       -1.22188       -0.07797
O          2.73053       -0.49743        1.11214
O          1.80715       -0.29247       -1.16090
O          1.17432       -2.22866        0.23682
H         -0.25112       -1.88785        0.24407
C          3.59035       -2.18272       -0.71720
H          3.89983       -2.88444        0.05724
H          3.24390       -2.71206       -1.60464
H          4.40076       -1.49733       -0.96537
N         -4.14569       -1.96341       -1.10277
H         -5.10065       -2.30561       -1.10896
H         -3.51561       -2.76090       -1.08025
H         -3.97589       -1.46361       -1.97082
H          1.30821        3.78218        1.06657
H          2.40132        3.26883       -0.24921
H          0.52399        4.69019       -1.07199
H          0.51041        3.08627       -1.80668
H         -1.62664        4.17969       -0.62260
H         -1.39453        2.55369       -0.59237
H          1.86706        1.36447        1.14588
H          0.23997        1.61193        0.95867
C          1.38954        3.18631        0.15532
C          0.34557        3.63090       -0.86504
N          1.16070        1.76982        0.51701
N         -0.99380        3.44980       -0.32435
H          1.22219        1.13557       -0.31288
