30
1sa1msa1a1dma_110.log	Energy: -976487.3408989
S         -0.98169        0.04361       -0.77016
O          0.17252        0.61560       -1.48086
O         -2.14487       -0.27231       -1.61933
O         -0.54346       -1.39136       -0.20655
O         -1.37961        0.85236        0.41830
H          0.32511       -1.30689        0.26726
H         -3.05695        0.42039        0.75535
S          3.05747       -0.52516        0.26853
O          4.12804       -1.49325        0.18271
O          1.80574       -0.91119        0.94217
O          2.70913       -0.06310       -1.20773
H          1.75443        0.21902       -1.29663
C          3.64123        0.96034        1.03744
H          3.87043        0.71091        2.07454
H          4.54291        1.26996        0.50828
H          2.84641        1.71532        0.96804
N          1.04074        2.88424        0.47924
H          0.24669        2.32158        0.77871
H          0.97478        2.93015       -0.53316
H          0.91551        3.82379        0.84071
N         -3.88123       -0.13649        0.42955
C         -5.14057        0.62370        0.53582
C         -3.87034       -1.44984        1.11410
H         -3.58597       -0.27394       -0.56197
H         -5.36008        0.81147        1.58776
H         -5.02424        1.57066        0.00893
H         -5.95120        0.04814        0.08691
H         -4.04378       -1.29980        2.18038
H         -4.65223       -2.08260        0.69222
H         -2.89270       -1.90684        0.95367
