41
1sa1msa1tma1eda_206.log	Energy: -1085199.7444273
S         -0.10459        1.77357        0.51083
O          1.31022        2.05506        0.84239
O         -0.37155        1.46257       -0.88597
O         -0.71476        0.81802        1.46978
O         -0.87785        3.18039        0.76129
H         -0.59630        3.53061        1.61739
S          3.42447       -0.44186       -0.37759
O          2.36762       -1.03869       -1.19059
O          3.53226       -0.91017        0.99885
O          3.34680        1.13191       -0.43247
H          2.52787        1.48909        0.04623
C          4.98278       -0.65096       -1.20389
H          4.90526       -0.21495       -2.19939
H          5.75521       -0.15811       -0.61445
H          5.16528       -1.72419       -1.26399
H         -5.73609        0.33372       -1.15989
H         -5.44876        0.16950        0.57783
H         -3.96310        1.87047       -0.40891
H         -3.03637        0.53334        0.26033
H         -3.56952        0.94228       -2.58629
H         -2.12986        0.90190       -1.80530
H         -5.54619       -1.99465       -0.54089
H         -4.22671       -1.57747       -1.42483
C         -5.00693       -0.01301       -0.40773
C         -3.72798        0.80456       -0.54428
N         -4.69829       -1.43823       -0.53422
N         -3.06878        0.50820       -1.81666
N         -0.83737       -1.77262        0.75877
C          0.38742       -2.32369        1.39225
H          1.26483       -1.82416        0.98458
H          0.33325       -2.14699        2.46682
H          0.43955       -3.39535        1.18733
C         -2.06987       -2.35528        1.34466
H         -2.09866       -2.11084        2.40771
H         -2.95019       -1.95298        0.83175
H         -2.03629       -3.44024        1.21555
C         -0.80705       -1.90491       -0.72355
H         -1.67880       -1.39503       -1.13994
H          0.10962       -1.44424       -1.09334
H         -0.82517       -2.96849       -0.97453
H         -0.83832       -0.74504        0.97828
