30
1sa1msa2ma_93.log	Energy: -976491.8045808
S         -0.62428       -0.53375       -0.83038
O         -0.19196        0.89504       -0.74346
O         -1.97579       -0.69321       -1.35503
O          0.33922       -1.24283       -1.87260
O         -0.42386       -1.20800        0.48662
H          1.27540       -1.03540       -1.63146
H         -1.90468       -0.99727        1.33395
S          3.10117        0.24551        0.24642
O          4.43459        0.77127        0.42774
O          2.79308       -0.50021       -0.98047
O          2.08284        1.44904        0.38150
H          1.20602        1.24182       -0.07497
C          2.67848       -0.79632        1.62511
H          3.36171       -1.64634        1.60171
H          2.81447       -0.21938        2.53980
H          1.64327       -1.12060        1.49641
N         -2.76785        1.87476        0.53628
H         -2.79757        2.69105        1.14013
C         -3.77539        1.98756       -0.53155
H         -3.69367        2.92200       -1.09698
H         -3.63563        1.15252       -1.22082
H         -4.77803        1.92892       -0.09826
H         -1.83546        1.84749        0.11479
N         -2.84198       -0.63770        1.63735
H         -2.88796       -0.64426        2.65358
C         -3.93163       -1.43445        1.02600
H         -4.89279       -0.97713        1.26317
H         -3.76480       -1.43568       -0.05095
H         -3.90040       -2.45634        1.40467
H         -2.86510        0.39149        1.28163
