23
1sa1msa1ma_71.log	Energy: -916310.6688458
S         -2.28680       -0.02853        0.02403
O         -1.19737        0.68810        0.66867
O         -3.51919        0.63014       -0.29657
O         -1.76469       -0.72727       -1.27858
O         -2.57080       -1.25810        1.01809
H         -0.83664       -1.07813       -1.14337
H         -3.41003       -1.67813        0.77677
S          1.77277       -0.87604       -0.14826
O          2.44569        0.07011       -1.01135
O          0.63596       -1.62798       -0.70754
O          1.29691       -0.18955        1.20337
H          0.38960        0.19349        1.08993
C          2.93602       -2.03550        0.51371
H          3.36344       -2.56766       -0.33657
H          3.70602       -1.47394        1.04266
H          2.40755       -2.71547        1.18034
N          0.85294        2.91784       -0.65612
H         -0.05401        2.54632       -0.39631
C          1.61013        3.30738        0.52759
H          1.81949        2.49046        1.23659
H          2.56887        3.73328        0.21767
H          1.06623        4.09038        1.06429
H          1.34422        2.19282       -1.16805
