33
1sa1msa1a1tma_32.log	Energy: -1001155.8771993
S          1.74153        0.05952       -0.12116
O          1.98874        1.00909        0.96910
O          1.46318       -1.32988        0.36641
O          0.69269        0.51961       -1.06137
O          3.05435       -0.05134       -1.00517
H          3.68914       -0.70104       -0.55702
S         -2.04503       -1.39339       -0.07242
O         -2.55041       -0.91892       -1.35117
O         -1.79370       -0.38207        0.95846
O         -0.78620       -2.30953       -0.25089
H          0.11009       -1.85720       -0.01145
C         -3.19129       -2.59285        0.57155
H         -4.14400       -2.08339        0.71898
H         -3.29495       -3.39143       -0.16300
H         -2.80180       -2.97529        1.51443
N          4.42813       -1.92323        0.33696
H          3.57342       -2.31657        0.72697
H          5.01964       -1.61969        1.10282
H          4.91441       -2.64851       -0.17840
N         -0.74938        2.44688        0.06768
C          0.16728        3.49436       -0.44563
H          1.14080        3.35009        0.02381
H          0.26720        3.37147       -1.52389
H         -0.24144        4.47888       -0.20654
C         -2.08181        2.49941       -0.57874
H         -1.95229        2.36903       -1.65324
H         -2.68265        1.67762       -0.19252
H         -2.54882        3.46337       -0.36268
C         -0.83461        2.47974        1.54939
H         -1.48914        1.67250        1.87186
H          0.16709        2.31473        1.94645
H         -1.22802        3.45216        1.85671
H         -0.30040        1.54008       -0.23085
