42
1sa1msa2tma_28.log	Energy: -1075138.1729754
S          2.82392       -0.27196       -0.06290
O          2.96207        0.46119        1.19758
O          2.81693       -1.74378        0.08781
O          1.72643        0.21736       -0.92422
O          4.14062        0.06955       -0.95812
H          4.91571       -0.28231       -0.49941
S         -3.04808        0.07568        0.00244
O         -3.21804       -1.39514        0.05386
O         -2.01939        0.50354       -0.99047
O         -2.81966        0.69862        1.32793
C         -4.60734        0.72208       -0.59736
H         -4.80192        0.28925       -1.57907
H         -5.38639        0.43558        0.10958
H         -4.53136        1.80813       -0.66365
N          0.55893        2.51387        0.03105
C         -0.45209        3.14026       -0.86019
H          0.01247        3.33380       -1.82802
H         -1.27785        2.43297       -0.97326
H         -0.78224        4.07777       -0.40713
C          0.00704        2.23377        1.38607
H         -0.93166        1.67858        1.29156
H          0.75269        1.65783        1.93671
H         -0.17680        3.18794        1.88573
C          1.81082        3.30787        0.10920
H          2.51707        2.77194        0.74401
H          2.22622        3.41073       -0.89389
H          1.58006        4.29078        0.52534
H          0.83363        1.59625       -0.38434
N          0.19805       -2.57509        0.04045
C         -0.46356       -2.26914       -1.26105
H         -0.26920       -1.22607       -1.50528
H         -0.04176       -2.93160       -2.01855
H         -1.53964       -2.40701       -1.14513
C          0.04501       -3.99989        0.41234
H          0.45954       -4.62309       -0.38075
H          0.58097       -4.18391        1.34418
H         -1.01742       -4.21364        0.54168
C         -0.27500       -1.68004        1.13413
H          0.34624       -1.85540        2.01331
H         -0.16701       -0.65177        0.79408
H         -1.32979       -1.87535        1.32740
H          1.21530       -2.37258       -0.06194
