35
1sa1msa1ma1eda_216.log	Energy: -1035882.0591331
S          0.73677        0.60525       -0.72308
O          0.65065        1.12760        0.66146
O          0.33626       -0.84261       -0.77953
O          0.00170        1.44422       -1.68265
O          2.24760        0.60806       -1.15985
H          2.69740       -0.28971       -0.84644
S         -2.98880       -1.11241        0.30174
O         -3.35317        0.30017        0.07312
O         -2.50326       -1.44737        1.62867
O         -2.02648       -1.60561       -0.82145
H         -1.04191       -1.24078       -0.76640
C         -4.41961       -2.08720       -0.09336
H         -5.20216       -1.79683        0.60804
H         -4.71435       -1.87059       -1.11946
H         -4.16054       -3.13824        0.03056
N         -1.66111        2.47487        0.26789
H         -2.36769        1.71204        0.27883
H         -0.82086        2.10219        0.76279
C         -2.16914        3.74937        0.80501
H         -1.38175        4.50120        0.75736
H         -3.02706        4.07547        0.21723
H         -2.47202        3.60250        1.84137
H         -1.31647        2.52458       -0.70281
H          5.73949       -0.73451       -0.30867
H          6.01525       -0.78146        1.43502
H          4.56370       -2.58667        1.02817
H          3.51822       -1.30933        1.68555
H          3.74226       -2.08519       -1.13823
H          2.40826       -2.13501       -0.18962
H          5.51495        1.46007        0.77650
H          4.02939        1.03407        0.23389
C          5.25648       -0.57317        0.67302
C          4.13641       -1.59557        0.83043
N          4.76921        0.78277        0.88334
N          3.27149       -1.62417       -0.36425
