40
1sa1msa2eda_53.log	Energy: -1095295.9785547
S         -2.32329       -1.51416       -0.33014
O         -1.58885       -0.46093       -1.08055
O         -1.48861       -2.72894       -0.20097
O         -2.96659       -1.04052        0.88781
O         -3.57613       -1.93826       -1.27485
H         -3.22641       -2.36473       -2.06869
S          2.23413        1.40338       -0.51824
O          1.42360        2.54440       -1.01246
O          2.34733        0.28058       -1.48433
O          1.76965        0.92979        0.81815
C          3.88567        2.04016       -0.29624
H          4.24132        2.40413       -1.26036
H          3.84437        2.85113        0.43098
H          4.52120        1.23025        0.06473
H         -1.99537        3.82886        0.35086
H         -2.45952        3.01120       -1.16071
H         -4.25138        2.90817        0.67126
H         -3.74846        1.33065        0.05843
H         -3.47183        2.24814        2.70828
H         -3.09233        0.77159        2.06590
H         -0.18428        2.36920       -0.37881
H         -0.91927        1.80059        1.02595
C         -2.24763        2.86564       -0.09955
C         -3.41649        2.20073        0.63353
N         -1.06487        1.98714        0.02747
N         -2.98175        1.77565        1.96142
H         -1.24520        1.06138       -0.42274
H          1.75865       -3.54684        0.86871
H          2.32209       -3.33417       -0.81056
H          4.15609       -3.00048        0.84676
H          3.85304       -1.53455       -0.09363
H          3.93592       -1.56723        2.58360
H          2.91547       -0.53373        1.79429
H          0.17615       -2.19943       -0.25171
H          1.03942       -1.20405        0.76893
C          2.15537       -2.83207        0.14504
C          3.43513       -2.19516        0.67898
N          1.11762       -1.79315       -0.06773
N          3.16095       -1.51120        1.93713
H          1.39770       -1.13162       -0.81852
