24
1sa1msa2a_14.log	Energy: -927178.1549318
S         -1.79093       -0.91851       -0.01054
O         -1.88573       -0.26948       -1.33886
O         -1.01386        0.00210        0.91583
O         -3.02032       -1.40459        0.56444
O         -0.85034       -2.20673       -0.19144
H         -0.01349       -1.93892       -0.62428
S          2.10343       -0.03709       -0.00321
O          2.02313        1.35307       -0.47098
O          1.61373       -1.05171       -0.94024
O          1.40380       -0.19468        1.38097
H          0.35472       -0.16406        1.25007
C          3.78390       -0.39115        0.42954
H          4.11151        0.34499        1.16289
H          3.82461       -1.40123        0.83598
H          4.36814       -0.31528       -0.48783
N         -0.60160        2.10864       -1.35476
H         -0.68115        2.66893       -2.19780
H         -1.08177        2.57004       -0.52921
H         -1.07454        1.17534       -1.47888
H          0.39039        1.94085       -1.12338
N         -1.93642        2.83249        0.99831
H         -2.93738        2.99352        0.94236
H         -1.56257        3.47269        1.69122
H         -1.79900        1.87795        1.33906
