41
1sa1msa1tma1eda_148.log	Energy: -1085205.3437884
S          0.17916       -0.77036        0.35616
O          1.22431       -1.80891        0.22165
O         -1.07213       -1.22558        0.95963
O          0.74114        0.30842        1.41509
O         -0.03350       -0.02235       -0.91226
H          1.66751        0.53641        1.16459
H         -1.57044        0.65099       -0.85122
S          4.23510       -0.13698       -0.06777
O          5.24221       -0.62488        0.85260
O          3.23037        0.80617        0.44774
O          3.50688       -1.32260       -0.80176
H          2.58516       -1.52092       -0.40570
C          5.03934        0.63240       -1.45287
H          5.71215       -0.09782       -1.90234
H          4.27740        0.95587       -2.16094
H          5.60032        1.48198       -1.06263
H         -3.30391        2.17163        1.01090
H         -1.97011        1.06465        1.42629
H         -1.19745        3.44660        1.49934
H         -0.35885        2.51482        0.25970
H         -2.42120        4.53454       -0.20266
H         -1.00851        4.29876       -0.98940
H         -3.23841        0.35877       -0.55800
H         -2.68127        1.82756       -1.30833
C         -2.32171        1.80022        0.70123
C         -1.32711        2.94207        0.53410
N         -2.48234        1.11318       -0.60337
N         -1.78380        3.82342       -0.54408
N         -4.31660       -0.96000       -0.32181
C         -5.63458       -0.73427       -0.90532
H         -6.09559        0.14875       -0.45241
H         -5.53788       -0.56363       -1.98147
H         -6.30689       -1.59406       -0.74989
C         -3.64427       -2.09984       -0.95190
H         -3.52810       -1.91124       -2.02328
H         -2.65561       -2.22328       -0.50417
H         -4.21888       -3.03078       -0.82070
C         -4.40233       -1.15117        1.12747
H         -3.39628       -1.28124        1.53293
H         -4.86351       -0.27104        1.58678
H         -5.00893       -2.03454        1.38529
