35
1sa1msa1ma1eda_232.log	Energy: -1035884.8765628
S          2.42970       -0.29092       -0.34655
O          2.89933       -0.01788        1.01107
O          1.94724       -1.67974       -0.54457
O          1.49083        0.72912       -0.86165
O          3.69672       -0.14073       -1.34813
H          4.33017       -0.84051       -1.13735
S         -1.46330       -1.93888        0.42526
O         -1.15484       -0.70158        1.15814
O         -1.46344       -3.17606        1.18158
O         -0.55356       -2.04226       -0.85658
H          0.44462       -1.93042       -0.67784
C         -3.02639       -1.71129       -0.38449
H         -3.78128       -1.64465        0.39999
H         -2.95897       -0.78696       -0.96415
H         -3.21275       -2.57649       -1.02057
N          0.35929        1.57741        1.53503
H         -0.57325        2.01877        1.31090
H          0.14637        0.63748        1.88380
C          1.21431        2.35863        2.44799
H          2.16229        1.83484        2.56727
H          1.39061        3.34146        2.01041
H          0.71501        2.47086        3.41066
H          0.83013        1.40585        0.62355
H         -3.30250        2.88264       -1.12149
H         -2.12175        4.05290       -0.50128
H         -1.34239        2.98286       -2.59157
H         -0.25812        2.63039       -1.25489
H         -1.71148        0.77150       -2.78180
H         -0.56601        0.50260       -1.65023
H         -2.94781        2.56159        1.23916
H         -2.33009        1.27754        0.42650
C         -2.30363        2.98632       -0.67291
C         -1.26309        2.43436       -1.64554
N         -2.20615        2.27509        0.60827
N         -1.43895        0.99171       -1.83182
