42
1sa1msa2tma_17.log	Energy: -1075138.6171580
S          0.89604        0.37666       -0.05323
O          0.86895        1.50204        0.89450
O          1.06823       -0.94672        0.56159
O         -0.33144        0.43112       -0.94092
O          2.08137        0.59930       -1.06608
H          2.97832        0.22295       -0.64915
S         -2.68606       -1.82640       -0.01696
O         -3.84656       -2.62126       -0.36470
O         -2.88905       -0.52812        0.63386
O         -1.85335       -1.60384       -1.34343
H         -1.18397       -0.85446       -1.21884
C         -1.58559       -2.78174        1.00022
H         -2.08364       -2.93284        1.95871
H         -1.41487       -3.73452        0.49899
H         -0.65315       -2.22208        1.11333
N         -1.99056        2.34087        0.00896
C         -3.29713        2.25028       -0.68731
H         -3.11552        2.16461       -1.75936
H         -3.81228        1.35908       -0.33108
H         -3.87611        3.15220       -0.47539
C         -2.14315        2.35807        1.48666
H         -2.70450        1.47251        1.78053
H         -1.14535        2.32375        1.92410
H         -2.67121        3.27043        1.77479
C         -1.18209        3.48991       -0.47015
H         -0.21228        3.44669        0.02543
H         -1.04253        3.39046       -1.54686
H         -1.70735        4.41925       -0.23824
H         -1.43467        1.48448       -0.24895
N          4.25372       -0.34298       -0.05259
C          4.22178       -0.04857        1.38314
H          4.16029        1.03235        1.53066
H          3.33071       -0.50437        1.81928
H          5.11994       -0.43381        1.88967
C          4.21639       -1.78702       -0.29553
H          3.30137       -2.19309        0.14034
H          4.19923       -1.97225       -1.37248
H          5.09277       -2.29039        0.14089
C          5.40349        0.28470       -0.70141
H          5.36280        0.09687       -1.77726
H          5.36852        1.36442       -0.53618
H          6.35436       -0.10567       -0.30669
