28
1sa1msa1eda_69.log	Energy: -975730.7641528
S          0.48466        1.45670       -0.08954
O         -0.59979        2.42205       -0.13764
O          0.34569        0.44568        1.00359
O          0.46636        0.59520       -1.45506
O          1.85648        2.02007       -0.09759
H         -0.39942        0.12205       -1.49497
H          2.95074        0.99043        0.25693
S         -2.77182       -0.74367       -0.00151
O         -3.77995       -1.77498        0.09345
O         -1.86995       -0.75216       -1.16285
O         -1.90345       -0.80455        1.31991
H         -1.03527       -0.29863        1.21457
C         -3.53391        0.86030        0.08208
H         -4.16581        0.95813       -0.80155
H         -4.13241        0.89872        0.99213
H         -2.74529        1.61656        0.08327
H          3.93150       -1.48150        1.65192
H          2.34856       -0.65334        1.82857
H          2.21356       -2.74777        0.39242
H          1.68814       -1.27501       -0.42268
H          4.14716       -2.74289       -0.94775
H          3.15101       -1.95592       -1.98251
H          4.38523        0.74157        1.12801
H          4.18105       -0.04169       -0.34548
C          3.13062       -0.95034        1.12980
C          2.55905       -1.79040       -0.01240
N          3.71559        0.27757        0.51933
N          3.57273       -1.91571       -1.06268
