38
1sa1msa1dma1eda_308.log	Energy: -1060543.3755919
S         -2.37770       -0.61840       -0.69338
O         -2.63283        0.54884        0.17516
O         -2.38213       -0.38647       -2.12648
O         -1.17817       -1.37098       -0.20431
O         -3.63604       -1.58453       -0.34995
H         -3.70284       -2.24748       -1.05069
S          2.16627       -1.40219       -0.00684
O          2.33487       -2.71483        0.58374
O          1.80669       -0.30279        0.91182
O          1.15132       -1.42127       -1.20625
H          0.17949       -1.43152       -0.88372
C          3.63677       -0.92152       -0.87410
H          4.44089       -0.90438       -0.13808
H          3.83417       -1.66503       -1.64597
H          3.48467        0.06957       -1.30185
N         -0.58943        0.55112        2.02524
C         -0.29091        1.84820        2.67067
C         -0.90701       -0.55474        2.95592
H         -1.38071        0.65587        1.35319
H          0.61670        1.74684        3.26795
H         -0.16179        2.58602        1.87457
H         -1.12931        2.12844        3.31058
H         -0.06083       -0.71232        3.62585
H         -1.79926       -0.29408        3.52668
H         -1.08963       -1.45116        2.36353
H          0.22801        0.25793        1.46208
H          1.52026        3.52603       -1.93299
H          2.05971        1.87574       -2.15987
H         -0.34143        1.89522       -2.34040
H          0.12852        1.01681       -0.89358
H         -0.83588        3.78492       -0.87874
H         -1.64830        2.46057       -0.37914
H          1.87190        3.31969        0.38329
H          2.24764        1.73791        0.27306
C          1.52467        2.53381       -1.46392
C          0.09195        2.01723       -1.33696
N          2.29027        2.62381       -0.22514
N         -0.71819        2.86682       -0.45891
