39
1sa1msa1dma1tma_134.log	Energy: -1050461.5571392
S         -1.48246       -0.45983       -0.65904
O         -0.27023       -0.27986       -1.47747
O         -2.70468       -0.81193       -1.37654
O         -1.22401       -1.70752        0.31126
O         -1.70049        0.71964        0.24522
H         -0.31143       -1.64984        0.69450
H         -3.15700        0.73702        0.66014
S          2.46761       -1.69626        0.24773
O          3.10558       -2.98980        0.36068
O          1.30917       -1.40051        1.10868
O          2.03420       -1.48820       -1.26041
H          1.15604       -1.00934       -1.33876
C          3.66500       -0.41519        0.49761
H          4.04547       -0.53089        1.51370
H          4.46403       -0.56907       -0.22837
H          3.16975        0.55701        0.35644
N         -4.21578        0.66006        0.89418
C         -4.49352       -0.74616        1.28424
C         -4.98511        1.11114       -0.29168
H         -4.39619        1.27855        1.68346
H         -4.24756       -1.37957        0.43154
H         -3.84925       -1.01087        2.12254
H         -5.54478       -0.85196        1.55770
H         -4.66872        0.49749       -1.13574
H         -6.05416        0.99730       -0.10297
H         -4.74431        2.15569       -0.48956
N          2.17996        2.44792        0.07162
C          1.18654        2.44292        1.13369
H          0.42794        1.68342        0.93231
H          1.66939        2.21186        2.08911
H          0.67814        3.42205        1.23187
C          3.20191        3.45044        0.30707
H          3.68855        3.26845        1.27099
H          3.96350        3.39864       -0.47721
H          2.78940        4.47787        0.31988
C          1.56030        2.61592       -1.23390
H          2.32206        2.53550       -2.01579
H          0.81589        1.83270       -1.39343
H          1.06450        3.60062       -1.33540
