36
1sa1msa2dma_157.log	Energy: -1025809.6352187
S          2.70721       -0.24405       -0.13760
O          2.28791        0.92386        0.69594
O          3.12573       -1.37675        0.68790
O          1.73930       -0.54733       -1.19646
O          4.01502        0.25337       -0.96195
H          4.74312        0.34936       -0.33318
S         -0.94987        1.99223        0.12909
O         -1.33916        1.90077        1.53265
O         -1.16252        0.77838       -0.66643
O          0.50969        2.51951       -0.03573
H          1.24588        1.83615        0.24430
C         -1.81792        3.33825       -0.63903
H         -2.88192        3.10737       -0.57825
H         -1.59098        4.25132       -0.08923
H         -1.49202        3.41191       -1.67603
N         -0.31234       -1.84648        0.20722
C          0.31343       -3.14807       -0.11018
C         -0.17417       -1.46046        1.63243
H          0.13528       -1.12551       -0.38580
H         -0.17340       -3.93065        0.47542
H          0.18891       -3.34414       -1.17525
H          1.37668       -3.09416        0.12863
H         -0.68735       -2.20497        2.24491
H          0.88498       -1.42557        1.89166
H         -0.62754       -0.47944        1.77818
H         -1.34123       -1.87748       -0.02975
N         -3.10204       -1.96191       -0.25477
C         -3.36271       -1.45551       -1.60536
C         -3.66715       -1.09685        0.78500
H         -3.50265       -2.89084       -0.16627
H         -2.84430       -0.50139       -1.72641
H         -2.96897       -2.15975       -2.34296
H         -4.43541       -1.30573       -1.79761
H         -3.14414       -0.13745        0.77325
H         -4.74256       -0.91494        0.64297
H         -3.51572       -1.55492        1.76590
