41
1sa1msa1tma1eda_186.log	Energy: -1085202.2357214
S         -2.10778       -1.43589       -0.81881
O         -2.50042       -1.76918       -2.17668
O         -2.15396       -2.50345        0.17781
O         -0.80737       -0.68251       -0.71588
O         -3.15892       -0.27082       -0.32222
H         -4.00104       -0.45221       -0.76051
S         -0.33567        2.50881        0.21155
O          0.87277        3.31794        0.17067
O         -0.47991        1.54676        1.30343
O         -0.48493        1.77118       -1.16906
H         -0.69219        0.77453       -1.04514
C         -1.75455        3.57780        0.21508
H         -1.72146        4.16248        1.13495
H         -1.69598        4.22664       -0.65868
H         -2.64458        2.94913        0.18174
H          4.16951       -0.70917       -2.39772
H          2.68917       -1.67727       -2.45834
H          2.14394        0.70343       -2.36730
H          1.55182       -0.14359       -0.94526
H          3.99710        1.47872       -1.00292
H          2.61661        1.83533       -0.22183
H          4.24488       -2.56629       -0.83763
H          4.18894       -1.16239        0.00485
C          3.29027       -1.02937       -1.81243
C          2.46304        0.19507       -1.44649
N          3.65428       -1.77486       -0.60550
N          3.20352        1.06045       -0.52517
N          0.49836       -1.25708        1.70902
C          0.92616       -2.61652        1.27627
H          0.05909       -3.12165        0.85010
H          1.72719       -2.50479        0.53900
H          1.29493       -3.15407        2.15329
C          1.65418       -0.44061        2.16402
H          2.36404       -0.32884        1.34277
H          1.28784        0.54005        2.46172
H          2.12543       -0.95415        3.00538
C         -0.57759       -1.31318        2.73290
H         -0.90714       -0.29462        2.93566
H         -1.40223       -1.89850        2.32552
H         -0.17481       -1.77735        3.63586
H          0.07387       -0.81019        0.87168
