39
1sa1msa1dma1tma_04.log	Energy: -1050491.8671392
S         -0.72938       -1.91940       -0.57180
O         -1.88941       -2.74089       -0.87235
O          0.58276       -2.44131       -1.02278
O         -0.98366       -0.55583       -1.45325
O         -0.65773       -1.41938        0.82441
H          2.08159       -0.29853        0.82022
S          1.18198        1.89817       -0.21132
O          1.85992        1.41709        1.02406
O         -0.19965        2.36941        0.01360
O          1.27708        0.88769       -1.30618
H         -0.13080       -0.04854       -1.51422
C          2.11713        3.31292       -0.76671
H          2.08627        4.06836        0.01860
H          3.14297        2.99564       -0.95468
H          1.65652        3.68701       -1.68122
N          2.41063       -1.26469        0.60654
C          2.40400       -2.07116        1.84187
C          3.71794       -1.15986       -0.06772
H          1.71558       -1.68054       -0.06309
H          3.07108       -1.61683        2.57682
H          1.37992       -2.09491        2.21468
H          2.73527       -3.08508        1.61140
H          4.43813       -0.69367        0.60693
H          4.05954       -2.15675       -0.35144
H          3.58504       -0.54397       -0.95733
N         -2.67905        0.76194        0.47679
C         -2.26485        1.06709        1.87137
H         -1.83765        0.15848        2.29364
H         -1.50532        1.84650        1.83323
H         -3.14553        1.38929        2.43191
C         -3.18759        1.96112       -0.23477
H         -2.41148        2.72380       -0.21634
H         -3.40557        1.68233       -1.26615
H         -4.09622        2.30635        0.26310
C         -3.65660       -0.35791        0.42694
H         -3.84012       -0.61697       -0.61533
H         -3.22279       -1.22079        0.92927
H         -4.57774       -0.03481        0.91654
H         -1.83594        0.44513       -0.03603
