38
1sa1msa1dma1eda_107.log	Energy: -1060557.5735773
S         -0.03022       -2.28112       -0.72750
O          0.19830       -1.87912        0.70529
O          0.69614       -1.15832       -1.60549
O          0.59489       -3.52824       -1.10744
O         -1.49043       -2.16332       -1.01718
H         -2.19364       -1.55101        0.21478
S          0.69902        2.16328       -0.51612
O          2.03417        2.12111       -1.12513
O          0.73632        1.89731        0.95901
O         -0.30214        1.28056       -1.18808
H          0.25147       -0.27032       -1.50585
C          0.06411        3.82067       -0.69936
H          0.76381        4.50576       -0.22037
H         -0.01348        4.03246       -1.76590
H         -0.91499        3.87605       -0.22314
N          2.35915       -0.33632        1.17391
C          3.40713       -0.48590        0.13795
C          2.83979       -0.51604        2.55579
H          1.89301        0.59589        1.09144
H          3.83956       -1.48464        0.21840
H          2.94360       -0.35438       -0.83816
H          4.17044        0.27852        0.28722
H          3.25088       -1.52043        2.66886
H          3.60997        0.22628        2.77161
H          2.00218       -0.38291        3.24089
H          1.57902       -1.01715        0.98360
H         -2.42039        0.59739        2.29879
H         -1.15359        0.41810        1.05726
H         -2.86589        2.11765        0.37400
H         -2.79668        0.75434       -0.73303
H         -4.91269        1.29000        1.21783
H         -5.04055        0.79339       -0.33438
H         -2.11302       -1.71786        1.86854
H         -3.58005       -1.23333        1.17643
C         -2.21437        0.28599        1.27007
C         -3.08327        1.04752        0.27995
N         -2.55782       -1.15468        1.14666
N         -4.48963        0.69932        0.51015
