28
1sa1msa1eda_160.log	Energy: -975720.0837534
S          0.98095        1.81061       -0.21674
O          0.32203        0.78180       -1.04756
O          0.62421        3.18432       -0.51281
O          0.49389        1.46555        1.31620
O          2.44499        1.55535       -0.07564
H         -0.46860        1.30495        1.30618
H          2.64856        0.21945        0.62033
S         -2.43929       -0.53794        0.08848
O         -1.60780       -1.71926        0.01456
O         -2.16336        0.48955        1.09300
O         -3.95796       -1.03503        0.38601
H         -4.29411       -0.53220        1.14201
C         -2.62009        0.19641       -1.51227
H         -1.62859        0.58242       -1.76697
H         -2.94918       -0.58026       -2.20241
H         -3.35246        0.99961       -1.43453
H          1.62253       -2.48526        1.47624
H          0.66814       -1.09299        0.90118
H          1.00698       -2.77603       -0.91870
H          1.70839       -1.20415       -1.29746
H          3.17994       -3.63433       -0.59480
H          3.52648       -2.50567       -1.72532
H          2.77497       -0.52868        2.13704
H          3.59474       -1.19773        0.82803
C          1.60514       -1.63490        0.78805
C          1.81080       -2.08139       -0.65291
N          2.73501       -0.73060        1.14113
N          3.16109       -2.63953       -0.79053
