32
1sa1msa1a1eda_131.log	Energy: -1011230.7046067
S         -0.83302        1.76940        0.01932
O         -2.21124        1.46480        0.41357
O          0.10046        1.90832        1.14794
O         -0.33938        0.85886       -1.04836
O         -0.84224        3.19842       -0.74998
H         -1.08386        3.88310       -0.11116
S          2.71387       -0.66667       -0.26534
O          3.91997       -1.31667       -0.72806
O          1.65869       -1.48518        0.34679
O          2.10736        0.12398       -1.49297
H          1.17618        0.46026       -1.30642
C          3.12256        0.62514        0.88562
H          3.54874        0.14853        1.76935
H          3.85690        1.27470        0.40926
H          2.20653        1.17042        1.12720
N         -0.53364       -0.74114        2.49957
H          0.31804       -1.21881        2.77894
H         -1.17531       -0.74012        3.28523
H         -0.28613        0.22954        2.29550
H         -2.18794       -3.13943       -1.13287
H         -2.17759       -3.36197        0.63738
H         -4.36443       -2.46653       -0.18679
H         -3.57758       -1.33206        0.91080
H         -4.37655       -0.76059       -1.66137
H         -3.30459        0.14322       -0.78547
H         -0.16096       -2.16499       -0.25059
H         -1.14852       -0.93119       -0.71363
C         -2.23656       -2.62677       -0.16979
C         -3.51198       -1.78767       -0.08650
N         -1.06769       -1.72812       -0.06277
N         -3.51043       -0.78651       -1.14235
H         -0.96733       -1.33191        0.92231
