32
1sa1msa1a1eda_254.log	Energy: -1011227.7683393
S         -0.17975        0.51602        0.71214
O         -1.34751        1.28514        1.14054
O          0.98872        0.59755        1.61356
O         -0.50670       -0.88408        0.33734
O          0.26255        1.24743       -0.66402
H         -2.06371       -0.91182       -0.30694
H          1.14505        0.89726       -0.93352
S          3.77314       -0.24140       -0.27549
O          4.88421        0.68318       -0.17996
O          2.66298        0.10378       -1.17645
O          3.19885       -0.58918        1.14755
H          2.30841       -0.12727        1.33641
C          4.38815       -1.83636       -0.76055
H          4.84489       -1.71540       -1.74320
H          5.13165       -2.14954       -0.02774
H          3.55253       -2.53432       -0.79719
N         -2.59262        1.96236       -1.46115
H         -1.62590        1.89620       -1.77783
H         -2.52448        2.40223       -0.54510
H         -3.09257        2.58350       -2.08789
H         -3.73754       -1.50940        1.22438
H         -3.51624        0.24683        1.25971
H         -5.95892       -0.35863        1.17068
H         -5.46811        0.52576       -0.27625
H         -5.92602       -2.36328       -0.12892
H         -6.55185       -1.28256       -1.18269
H         -3.47107       -1.33230       -1.20579
H         -2.99586        0.29465       -1.02336
C         -3.88823       -0.58518        0.65940
C         -5.34823       -0.42114        0.26033
N         -3.05200       -0.65905       -0.56086
N         -5.72674       -1.51049       -0.64154
