30
1sa1msa1a1dma_61.log	Energy: -976496.1012699
S         -1.02433       -1.71605        0.05845
O         -1.71996       -0.70003       -0.77613
O         -0.24756       -0.98429        1.12797
O         -1.83766       -2.80246        0.54413
O          0.08791       -2.39190       -0.88308
H          0.68156       -1.69832       -1.23776
S          2.38180        0.35838       -0.09809
O          1.80677        1.68190        0.18212
O          1.91679       -0.28116       -1.33246
O          2.18763       -0.59616        1.11756
H          1.16601       -0.85841        1.18248
C          4.14633        0.50134       -0.12970
H          4.47242        0.92678        0.81890
H          4.56476       -0.49288       -0.28327
H          4.39651        1.16251       -0.95974
N         -4.19664        0.94276       -0.40485
H         -4.76088        1.08592       -1.23669
H         -4.83938        0.68667        0.33842
H         -3.60438        0.13015       -0.57961
N         -1.05037        1.80892        0.09230
C         -1.46966        2.87257       -0.84526
C         -1.57971        1.97479        1.46545
H         -1.36296        0.87822       -0.27455
H         -1.12006        3.83705       -0.47292
H         -1.02753        2.67139       -1.82129
H         -2.55852        2.84851       -0.90904
H         -1.17524        2.89250        1.89581
H         -2.66688        2.02241        1.39866
H         -1.26995        1.10855        2.05012
H         -0.01894        1.76053        0.12850
