32
1sa1msa1a1eda_142.log	Energy: -1011230.1393713
S          2.51361       -0.55048       -0.09122
O          2.52545       -0.95234        1.30682
O          1.20049       -0.77818       -0.77020
O          3.00363        0.80896       -0.39562
O          3.55922       -1.56454       -0.80167
H          3.71937       -1.25019       -1.70171
S         -2.09102       -1.31643       -0.09287
O         -2.17040       -0.63314       -1.37784
O         -2.26948       -0.49167        1.10485
O         -0.76675       -2.15531        0.01801
H          0.06467       -1.62810       -0.27741
C         -3.27080       -2.64262       -0.03986
H         -4.25990       -2.18693       -0.09225
H         -3.09566       -3.29281       -0.89626
H         -3.14094       -3.18052        0.89872
N          0.19690        0.73777        2.31666
H          0.16244        1.13105        3.25136
H          0.95429        0.05209        2.29103
H         -0.67749        0.23899        2.14834
H          0.03849        2.63019       -1.84884
H         -0.31411        1.03172       -1.16901
H         -2.38393        2.41711       -1.26063
H         -1.95285        2.01898        0.39598
H         -1.59431        4.62875       -0.88642
H         -2.25251        4.28278        0.56614
H          1.65737        2.01698       -0.16942
H          0.69964        3.32797        0.36019
C         -0.29167        2.09895       -0.95098
C         -1.64357        2.60592       -0.47430
N          0.71353        2.33600        0.11531
N         -1.52191        4.01432       -0.08208
H          0.47334        1.77216        1.00248
