29
1sa1msa1tma_14.log	Energy: -965660.0491789
S         -0.55136       -1.48209       -0.08607
O         -1.90286       -2.02734       -0.08835
O          0.53721       -2.27677       -0.62982
O         -0.55653       -0.08188       -0.70651
O         -0.25328       -1.19615        1.46983
H         -1.92925        0.57929       -0.34779
H          0.61042       -0.72393        1.53113
S          2.74646        0.70428        0.09016
O          2.00058        0.32305        1.29762
O          3.74356        1.74540        0.19469
O          1.70965        1.14837       -1.02378
H          0.84074        0.64487       -0.93245
C          3.47248       -0.76778       -0.59053
H          4.20770       -1.12221        0.13299
H          2.67804       -1.50332       -0.73677
H          3.95361       -0.50060       -1.53122
N         -2.87124        0.99710       -0.06398
C         -2.78028        2.45782       -0.28786
H         -1.96573        2.85724        0.31719
H         -2.57184        2.64216       -1.34211
H         -3.72363        2.93048       -0.00523
C         -3.89849        0.35309       -0.91996
H         -3.68799        0.59415       -1.96239
H         -3.82464       -0.72509       -0.77617
H         -4.88704        0.72443       -0.63965
C         -3.06674        0.66428        1.37122
H         -3.06941       -0.42078        1.47363
H         -2.23174        1.07235        1.94071
H         -4.01064        1.09452        1.71401
