35
1sa1msa1ma1eda_163.log	Energy: -1035884.9884163
S         -0.82634       -0.13311       -0.44958
O          0.52590        0.06979       -1.06764
O         -1.18924       -1.52136       -0.20389
O         -0.93699        0.74131        0.75998
O         -1.79714        0.47358       -1.53566
H          0.34715        1.69527        0.82435
H         -2.78200        0.17920       -1.35916
S          3.49455       -0.59130        0.31848
O          3.20755       -1.07235        1.65772
O          3.46377        0.87409        0.13094
O          2.59666       -1.27577       -0.76073
H          1.68274       -0.78968       -0.87905
C          5.08769       -1.17753       -0.20012
H          5.81915       -0.78029        0.50407
H          5.07145       -2.26670       -0.16356
H          5.27853       -0.81894       -1.21072
N          1.17558        2.35071        0.68544
H          1.30484        2.91046        1.52489
C          0.92742        3.18629       -0.51342
H          1.76424        3.86700       -0.66999
H          0.82337        2.50827       -1.35986
H          0.00087        3.74293       -0.37493
H          2.02446        1.76588        0.54226
H         -5.39348       -1.79315       -0.16246
H         -3.63312       -2.05917       -0.26385
H         -4.26326       -1.42573        2.02057
H         -3.22905       -0.19696        1.29158
H         -6.11243        0.03499        1.72816
H         -4.92115        1.08386        2.12067
H         -4.61148       -0.62635       -2.05877
H         -4.86336        0.51261       -0.89651
C         -4.40924       -1.30425       -0.11759
C         -4.22388       -0.64859        1.24523
N         -4.27677       -0.27753       -1.16586
N         -5.22093        0.41214        1.42463
