32
1sa1msa1a1eda_285.log	Energy: -1011224.4828817
S         -0.12970       -1.80761       -0.08130
O         -1.56140       -2.15618       -0.09205
O          0.78545       -2.94418       -0.26717
O          0.12749       -0.91296       -1.40915
O          0.24901       -0.94919        1.06575
H         -0.51108       -0.16010       -1.38796
H          2.31664       -1.43445        1.75975
S         -2.75623        1.11952       -0.03367
O         -3.81514        2.07855       -0.24838
O         -1.62594        1.10019       -0.97483
O         -3.41246       -0.31526        0.02013
H         -2.71870       -1.04382       -0.03226
C         -2.08056        1.32317        1.59932
H         -1.63882        2.31990        1.63890
H         -2.89722        1.23612        2.31584
H         -1.32086        0.55214        1.75020
N          2.91104       -1.79468        1.01118
H          3.78108       -2.17816        1.36604
H          3.04178       -0.97341        0.26401
H          2.32022       -2.50973        0.53592
H          1.86549        2.00265       -1.03710
H          1.43361        1.03527        0.37642
H          2.82026        2.96793        1.04288
H          3.68428        1.45910        1.36063
H          4.18984        3.22290       -0.92461
H          5.23250        2.78742        0.25423
H          2.23171       -0.27703       -1.49817
H          3.73313        0.41688       -1.32556
C          2.27096        1.34714       -0.25444
C          3.30721        2.10785        0.56093
N          2.88411        0.14093       -0.83491
N          4.44048        2.46934       -0.29183
