38
1sa1msa1dma1eda_175.log	Energy: -1060550.3131798
S         -2.62906       -0.22718       -0.26344
O         -2.38491       -0.48986        1.15623
O         -2.28021        1.15746       -0.69930
O         -2.10156       -1.24806       -1.17842
O         -4.24537       -0.27157       -0.37005
H         -4.49283       -0.03214       -1.27349
S          0.95760        2.10242        0.18503
O          2.33503        1.80109       -0.18598
O          0.37750        1.38206        1.31269
O          0.07393        1.90364       -1.09906
H         -0.89360        1.58466       -0.89584
C          0.81585        3.84778        0.49384
H          1.43404        4.07845        1.36203
H          1.17115        4.37977       -0.38834
H         -0.23235        4.07062        0.69425
N          0.20660       -1.54304        1.36113
C          1.13460       -1.38883        2.49882
C         -0.23691       -2.93389        1.13043
H         -0.63877       -0.95863        1.48655
H          2.05696       -1.92061        2.26336
H          1.33953       -0.32714        2.62579
H          0.66639       -1.79176        3.39918
H          0.63952       -3.55305        0.93146
H         -0.76144       -3.29909        2.01465
H         -0.91546       -2.93697        0.27625
H          0.63944       -1.20434        0.45259
H          3.57327       -0.64246       -1.94738
H          4.02996       -2.30880       -1.58050
H          1.91145       -2.17361       -2.84173
H          1.71895       -2.96832       -1.27030
H          1.08285       -0.12577       -1.69098
H         -0.03441       -1.30957       -1.64116
H          4.32858       -1.22832        0.40473
H          3.00155       -0.30509        0.26055
C          3.30647       -1.52286       -1.34097
C          1.92111       -2.00594       -1.75486
N          3.36248       -1.24354        0.09556
N          0.89900       -1.05446       -1.31948
