24
1sa1msa2a_48.log	Energy: -927174.3069810
S         -2.17842       -0.09518       -0.00293
O         -2.31338        0.64351       -1.24804
O         -1.89084       -1.52613       -0.05124
O         -1.22048        0.61423        0.93838
O         -3.62638        0.06143        0.71167
H         -3.69506       -0.61308        1.40055
S          1.77134       -0.83852       -0.12838
O          3.21174       -0.76981        0.04243
O          1.17470       -0.11321       -1.25184
O          1.14188       -0.30952        1.22859
H          0.16365       -0.03888        1.12817
C          1.22848       -2.52464       -0.20965
H          1.64439       -2.95051       -1.12341
H          1.60782       -3.04314        0.67059
H          0.13594       -2.51432       -0.23866
N          0.07078        2.38232       -0.72077
H         -0.37840        3.18546       -1.14962
H          1.00444        2.60051       -0.27221
H         -0.55424        1.94406       -0.01098
H          0.23038        1.63663       -1.40730
N          2.57231        2.46957        0.58775
H          3.08401        3.29709        0.87716
H          3.20557        1.89538        0.03416
H          2.37425        1.92063        1.42203
