27
1sa1msa1a1ma_67.log	Energy: -951831.8825798
S          1.84519       -1.07701       -0.09785
O          1.78794       -0.78444        1.35085
O          0.67941       -1.88310       -0.54468
O          2.15198        0.07471       -0.93850
O          3.11279       -2.06280       -0.30457
H          2.91856       -2.90023        0.13839
S         -2.36554       -0.28125        0.05681
O         -1.75274        1.05658        0.15380
O         -2.47233       -1.02531        1.29988
O         -1.66096       -1.10875       -1.06887
H         -0.70030       -1.39554       -0.83103
C         -3.96373       -0.09683       -0.69210
H         -4.56426        0.50776       -0.01206
H         -3.84094        0.40240       -1.65258
H         -4.39832       -1.08849       -0.81498
N          0.43139        1.54119        1.84936
H         -0.49365        1.39366        1.41141
H          0.99497        2.20271        1.20783
H          0.33465        1.89773        2.79460
H          0.93197        0.62481        1.84000
N          1.77764        2.87358       -0.11869
H          2.49379        3.58422       -0.01069
C          0.75654        3.30070       -1.08628
H          1.16458        3.49438       -2.08455
H          0.00110        2.51533       -1.16857
H          0.26557        4.20847       -0.72492
H          2.22896        2.02331       -0.46373
