33
1sa1msa1ma1dma_193.log	Energy: -1001141.8070314
S         -1.18060       -0.60756       -1.14904
O          0.14602       -0.52288       -1.79431
O         -2.16298       -1.48233       -1.75726
O         -0.93825       -1.24059        0.32338
O         -1.70490        0.77224       -0.87076
H         -0.09542       -0.88094        0.70366
H         -2.77461        0.71164        0.17016
S          2.66224       -0.58534        0.65948
O          3.47938       -1.47759        1.45080
O          1.34480       -0.18127        1.19095
O          2.43984       -1.25591       -0.75589
H          1.57616       -0.97143       -1.17921
C          3.56463        0.89187        0.28297
H          3.76541        1.39003        1.23270
H          4.49661        0.59064       -0.19601
H          2.94292        1.51487       -0.37627
N          1.20559        2.42320       -1.31142
H          1.21499        3.08555       -2.07934
C          0.53570        2.99403       -0.14560
H         -0.51524        3.26636       -0.31929
H          0.56323        2.25996        0.66539
H          1.07736        3.88506        0.18845
H          0.70033        1.60110       -1.63458
N         -3.48833        0.60586        0.98768
C         -2.75232        0.80094        2.25930
C         -4.14235       -0.72281        0.86885
H         -4.18320        1.34201        0.87154
H         -1.98364        0.03079        2.31872
H         -2.27816        1.78237        2.24471
H         -3.43919        0.72083        3.10374
H         -3.37005       -1.48637        0.95981
H         -4.89223       -0.83438        1.65416
H         -4.59772       -0.80261       -0.11771
