24
1sa1msa2a_61.log	Energy: -927170.2165668
S         -1.19900       -0.10294        0.43514
O         -0.34839       -1.17179       -0.13305
O         -2.47619       -0.57104        0.98228
O         -0.42311        0.49698        1.69093
O         -1.39203        1.01925       -0.53254
H          0.51963        0.65625        1.44150
H         -2.91677        1.40535       -0.55459
S          2.91157       -0.06815       -0.06602
O          3.76135       -1.02813        0.60801
O          2.09745        0.83548        0.76012
O          1.98057       -0.77156       -1.12725
H          1.04789       -0.93378       -0.75510
C          3.90393        0.93066       -1.14859
H          4.59948        1.48468       -0.51767
H          4.44339        0.26691       -1.82399
H          3.24839        1.60639       -1.69632
N         -4.66550       -1.16261       -0.85718
H         -5.53371       -1.58411       -0.54331
H         -3.92900       -1.40994       -0.19032
H         -4.42554       -1.58617       -1.74836
N         -3.98321        1.49343       -0.47420
H         -4.38838        0.52942       -0.70545
H         -4.34787        2.21809       -1.08548
H         -4.19855        1.71111        0.49632
