38
1sa1msa1dma1eda_357.log	Energy: -1060535.7852688
S         -0.09018       -1.92328       -0.28090
O         -1.49420       -2.34983       -0.13354
O          0.84652       -2.93711       -0.75522
O         -0.06300       -0.80148       -1.43902
O          0.41326       -1.23036        0.94754
H         -0.72215       -0.10547       -1.20646
H          2.02723       -1.28174        0.73945
S         -3.24473        0.65875        0.00334
O         -4.26667        0.77738       -1.01563
O         -1.85171        0.94228       -0.38197
O         -3.30617       -0.74272        0.71820
H         -2.59043       -1.38528        0.38610
C         -3.65665        1.71268        1.37229
H         -4.63657        1.41450        1.74487
H         -2.89196        1.59939        2.13981
H         -3.68609        2.73381        0.99093
N          3.03562       -1.48610        0.48152
C          3.91582       -1.07513        1.59563
C          3.34022       -0.81644       -0.80729
H          3.03977       -2.49832        0.34123
H          3.76794       -0.00412        1.74369
H          3.62494       -1.61688        2.49590
H          4.95606       -1.29131        1.34651
H          3.20834        0.25448       -0.65298
H          4.36688       -1.04594       -1.09827
H          2.63506       -1.17948       -1.55450
H          2.30391        4.10315        0.44950
H          1.97940        4.07111       -1.27338
H          0.28562        2.75005       -0.14515
H          1.29011        1.66358       -1.09952
H          1.58372        2.07419        1.78602
H          0.98054        0.75054        1.04846
H          3.98909        2.39816        0.04531
H          3.76780        2.56699       -1.57232
C          2.30692        3.44969       -0.43345
C          1.29578        2.32246       -0.22223
N          3.68547        3.04110       -0.67879
N          1.65641        1.50732        0.94488
