23
1sa1msa1ma_40.log	Energy: -916326.6669111
S         -2.18167       -0.69926        0.03517
O         -1.39985       -0.17755       -1.11104
O         -1.77430       -2.01307        0.52139
O         -2.32428        0.32677        1.10032
O         -3.66734       -0.88315       -0.60746
H         -4.16397       -1.47724       -0.02906
S          2.56340       -0.29316        0.13323
O          1.90595        0.93445        0.56564
O          3.70518       -0.79034        0.87557
O          3.05621       -0.00955       -1.38795
H          3.96496       -0.33181       -1.47612
C          1.34963       -1.55700       -0.10847
H          0.87490       -1.75010        0.85514
H          0.59885       -1.19317       -0.81405
H          1.85812       -2.44783       -0.47649
N         -0.61254        2.12713        0.07630
H         -1.27324        1.66969        0.74740
H          0.34444        1.85310        0.34144
C         -0.79632        3.58401       -0.05613
H         -0.11063        3.97042       -0.80987
H         -1.82506        3.78528       -0.35335
H         -0.59361        4.06064        0.90251
H         -0.82712        1.58723       -0.78008
