32
1sa1msa1a1eda_274.log	Energy: -1011224.7605923
S         -1.09560       -1.81513       -0.21980
O         -2.34199       -1.92348       -0.96303
O          0.08390       -1.38738       -1.05384
O         -1.27766       -0.66743        0.86362
O         -0.69274       -3.02067        0.54960
H         -2.14031       -0.12638        0.65632
H          0.85846       -2.91623        0.77915
S          2.42889        0.83263       -0.13497
O          3.62855        0.45955       -0.86639
O          2.13804        0.04459        1.07929
O          1.17080        0.82857       -1.06962
H          0.66691       -0.09548       -1.06491
C          2.48896        2.54574        0.31702
H          3.31341        2.65817        1.02173
H          2.67752        3.12012       -0.59019
H          1.53096        2.81964        0.76580
N          1.90939       -2.69449        0.79628
H          2.40400       -3.24292        1.49397
H          2.02419       -1.67157        0.97854
H          2.28182       -2.88608       -0.13205
H         -2.68481        3.07524        1.35709
H         -2.32235        3.86424       -0.16690
H         -4.19375        2.45182       -0.59411
H         -2.79819        1.68338       -1.36596
H         -3.99441        0.84825        1.18073
H         -3.93324        0.00367       -0.22472
H         -0.82411        1.60408        0.97523
H         -0.52411        2.27420       -0.46536
C         -2.29616        2.89658        0.34640
C         -3.23902        1.94430       -0.39804
N         -0.90800        2.47235        0.45436
N         -3.43975        0.68874        0.34401
