32
1sa1msa1a1eda_215.log	Energy: -1011228.6880360
S          1.19136        1.77905       -0.07760
O          2.03884        1.48904       -1.23319
O         -0.15328        2.29547       -0.44902
O          1.12511        0.71461        0.93712
O          1.90955        2.98713        0.73819
H          2.07253        3.71006        0.11716
S         -2.52884       -0.19349        0.09216
O         -2.33657       -1.11341        1.21671
O         -1.80923       -0.51702       -1.13594
O         -2.23230        1.27642        0.53471
H         -1.35988        1.66736        0.13310
C         -4.27136       -0.09056       -0.23410
H         -4.76850        0.24490        0.67586
H         -4.42502        0.61653       -1.04871
H         -4.60871       -1.08929       -0.51243
N          2.90678       -2.00311        1.90325
H          3.54038       -2.62782        2.38837
H          2.95214       -1.09031        2.34786
H          3.21556       -1.88148        0.93437
H          0.94221       -3.58339       -0.42904
H         -0.53652       -2.74321       -0.96692
H          1.25623       -2.33760       -2.56192
H          0.74685       -0.84793       -1.78787
H          3.32537       -1.97411       -1.76212
H          2.81995       -0.51265       -1.21494
H         -0.50341       -2.02810        1.16730
H          1.20779       -2.17294        1.34051
C          0.48191       -2.60659       -0.60036
C          1.27732       -1.78929       -1.61290
N          0.40695       -1.90722        0.71347
N          2.64696       -1.51518       -1.16662
H          0.53375       -0.87977        0.61136
