40
1sa1msa2eda_206.log	Energy: -1095281.0768677
S          0.42054       -1.43785        0.04691
O         -0.33778       -0.59848        1.02875
O          1.47364       -2.24330        0.64720
O         -0.61901       -2.46262       -0.57600
O          0.91067       -0.56913       -1.06445
H         -1.43188       -1.97753       -0.86503
H          2.38374        0.15161       -0.58074
S         -3.63200       -0.34479       -0.04349
O         -4.97538       -0.85504        0.11581
O         -2.76855       -0.91827       -1.08782
O         -2.89402       -0.47746        1.34899
H         -1.89419       -0.55343        1.23273
C         -3.69012        1.40925       -0.30880
H         -4.24016        1.57067       -1.23721
H         -4.22139        1.85484        0.53252
H         -2.66282        1.78167       -0.39771
H          4.47532        0.41348        1.51766
H          3.15516       -0.79404        1.45105
H          5.30272       -1.78235        0.63682
H          4.05235       -1.74799       -0.60554
H          6.40156       -0.00916       -0.46988
H          5.77216       -0.79294       -1.75737
H          2.48425        1.38155        0.52137
H          3.74066        1.14778       -0.66972
C          3.86032       -0.20819        0.85985
C          4.71847       -1.11666       -0.01011
N          3.08670        0.69637       -0.02526
N          5.53285       -0.29425       -0.90905
H          1.42988        2.98487       -1.19669
H          0.07408        4.11346       -1.18617
H          1.15708        4.12210        0.97167
H         -0.49912        3.49825        1.11530
H          1.19101        2.21010        2.33612
H          0.42455        1.27903        1.24775
H         -0.79461        2.23741       -2.16636
H         -0.14330        1.18773       -1.11405
C          0.41545        3.15054       -0.79157
C          0.50344        3.27819        0.72463
N         -0.54111        2.12439       -1.19075
N          1.07361        2.06789        1.33718
