36
1sa1msa1ma1tma_03.log	Energy: -1025828.6233101
S          0.42243        1.97463       -0.23378
O         -0.59500        1.33883       -1.30661
O          1.67580        2.28931       -0.91578
O         -0.33828        3.12308        0.29835
O          0.58308        0.91285        0.81012
H         -1.66763        2.25189        0.99466
H          1.80379       -0.09793        0.53497
S         -1.22829       -1.91871       -0.04592
O         -2.22089       -1.01142        0.59768
O         -0.26205       -2.51922        0.88581
O         -0.57678       -1.28023       -1.23294
H         -0.53433        0.33886       -1.31170
C         -2.20054       -3.25964       -0.71437
H         -2.92373       -2.84713       -1.41796
H         -1.52357       -3.94938       -1.21890
H         -2.70488       -3.75518        0.11559
N         -2.47115        1.59447        1.13594
H         -2.13720        0.60575        0.99423
C         -3.52523        1.87993        0.13512
H         -4.31398        1.13358        0.22348
H         -3.92137        2.88298        0.29298
H         -3.05767        1.81461       -0.84665
H         -2.81244        1.67659        2.09053
N          2.69667       -0.61440        0.28552
C          3.80647        0.32994        0.56088
H          3.62341        1.24461       -0.00446
H          3.81610        0.55682        1.62754
H          4.75169       -0.13324        0.26763
C          2.77297       -1.83847        1.11840
H          2.79916       -1.54483        2.16849
H          1.87649       -2.43258        0.93598
H          3.68255       -2.38706        0.86077
C          2.59977       -0.93471       -1.16268
H          1.69132       -1.51626       -1.32489
H          2.52859        0.00579       -1.71089
H          3.49109       -1.49089       -1.46345
