38
1sa1msa1dma1eda_292.log	Energy: -1060546.1010476
S          0.20109       -1.77482       -0.45731
O         -0.83505       -2.70305       -0.88555
O          0.51688       -0.72743       -1.47458
O         -0.09080       -1.12951        0.86009
O          1.52201       -2.63714       -0.26210
H          2.27529       -2.01938       -0.10334
S          3.10255        0.77229        0.31843
O          4.21100        1.69862        0.27256
O          3.36660       -0.66139        0.14791
O          2.04226        1.22829       -0.76398
H          1.46093        0.45110       -1.06006
C          2.22431        0.97649        1.85219
H          2.90556        0.67710        2.64973
H          1.95578        2.02832        1.95152
H          1.34475        0.32920        1.82174
N         -2.78523       -0.69206        0.85043
C         -3.52868       -1.93896        0.56484
C         -3.27434        0.05315        2.02751
H         -1.76885       -0.91986        0.97747
H         -4.56814       -1.69370        0.33841
H         -3.04849       -2.43654       -0.27749
H         -3.48448       -2.59041        1.43913
H         -4.34534        0.23459        1.91834
H         -3.09148       -0.53794        2.92650
H         -2.75963        1.01231        2.07209
H         -2.77637       -0.08568       -0.01668
H         -2.59919        3.45525       -1.71226
H         -1.50507        3.83036       -0.38148
H         -0.56920        2.09551       -1.82843
H         -0.80387        1.50676       -0.18402
H         -2.72984        0.97898       -2.33810
H         -1.54044       -0.03067       -1.86795
H         -3.59576        3.63185        0.58622
H         -3.95424        2.24218       -0.17965
C         -2.17180        3.05817       -0.77614
C         -1.33227        1.82946       -1.08707
N         -3.19234        2.77015        0.23477
N         -2.16909        0.70252       -1.53553
