36
1sa1msa2dma_107.log	Energy: -1025812.1110071
S          0.24221       -1.43293        0.15819
O         -0.98078       -2.24518       -0.02666
O          0.43383       -0.43005       -0.90453
O          0.02971       -0.60165        1.52841
O          1.45615       -2.21996        0.44072
H         -0.84686       -0.15460        1.46932
H          2.76254       -1.16637        0.12052
S         -3.20735        0.44041       -0.17682
O         -3.00488        1.47960       -1.16634
O         -2.40893        0.50023        1.05736
O         -3.07019       -0.98867       -0.82001
H         -2.22436       -1.48254       -0.52796
C         -4.92278        0.41539        0.28736
H         -5.14933        1.38735        0.72640
H         -5.51351        0.25260       -0.61393
H         -5.07521       -0.38561        1.00981
N          1.94737        1.86723        0.10909
C          2.23848        2.96147       -0.81344
C          1.76531        2.31188        1.49007
H          1.10311        1.38282       -0.20269
H          3.20298        3.41380       -0.55909
H          2.29522        2.57222       -1.83339
H          1.47259        3.74910       -0.78619
H          2.70552        2.72567        1.87067
H          0.98844        3.08411        1.58084
H          1.47645        1.45577        2.10374
N          3.42798       -0.42400       -0.19939
C          3.61387       -0.58235       -1.65597
C          4.66961       -0.47426        0.58961
H          2.91206        0.51445       -0.03102
H          4.07278       -1.55034       -1.86507
H          2.62887       -0.53159       -2.12164
H          4.25426        0.22005       -2.02873
H          5.16105       -1.43861        0.44741
H          5.33839        0.32751        0.26969
H          4.42358       -0.34539        1.64417
