38
1sa1msa1dma1eda_172.log	Energy: -1060549.6176859
S         -2.56257        1.00847       -0.17743
O         -3.20961       -0.26691        0.17457
O         -3.39184        2.19942       -0.13594
O         -1.24814        1.09962        0.51927
O         -2.10670        0.84708       -1.75301
H         -2.70376        1.39694       -2.27666
S          2.03655        1.50940        0.17885
O          2.15762        0.99310       -1.18308
O          2.00407        0.51299        1.25055
O          0.82146        2.49357        0.30107
H         -0.07523        1.98930        0.34259
C          3.35644        2.65816        0.47721
H          3.31534        3.43173       -0.28895
H          3.22755        3.08116        1.47287
H          4.28829        2.09615        0.40930
N         -1.04051       -1.79942        1.07907
C         -0.43389       -1.37434        2.35575
C         -1.28243       -3.25106        0.98307
H         -1.92498       -1.28165        0.91648
H          0.49602       -1.92444        2.50075
H         -0.22870       -0.30723        2.29710
H         -1.13037       -1.58552        3.16990
H         -0.31581       -3.75683        1.01058
H         -1.91768       -3.57547        1.80964
H         -1.78408       -3.45785        0.03651
H         -0.44146       -1.51644        0.24257
H          2.84739       -1.72672       -1.49927
H          2.66930       -3.48497       -1.44427
H          1.04226       -2.42078       -2.95703
H          0.26290       -3.33723       -1.65516
H          0.67491       -0.42642       -1.51454
H         -0.73312       -1.11511       -1.95254
H          2.83582       -2.94101        0.75040
H          1.98754       -1.56395        0.63257
C          2.19616       -2.54211       -1.15143
C          0.85656       -2.44136       -1.87332
N          2.02287       -2.52888        0.30529
N          0.11084       -1.26973       -1.40731
