28
1sa1msa1eda_92.log	Energy: -975729.8121394
S         -0.49377       -2.20137       -0.18834
O          0.92850       -2.27067       -0.62755
O         -1.20913       -3.45318       -0.17388
O         -0.43415       -1.72308        1.36904
O         -1.18598       -1.06971       -0.87640
H          0.28389       -1.05647        1.44225
H         -2.07952       -0.24723        0.06325
S          1.98036        0.92311        0.00386
O          1.37921        0.32843        1.21296
O          1.33839        2.12365       -0.50846
O          2.11951       -0.15315       -1.10802
H          1.59011       -1.04869       -0.91713
C          3.67922        1.29271        0.36668
H          3.68808        2.07017        1.13081
H          4.15775        0.38300        0.72815
H          4.15010        1.64665       -0.55033
H         -2.19548        2.22135        1.75026
H         -0.74264        1.35936        1.17170
H         -1.27696        3.34490       -0.28438
H         -1.33330        1.82481       -1.16171
H         -3.63392        3.43926       -0.36494
H         -3.36819        2.63002       -1.75944
H         -2.70958       -0.10870        1.62254
H         -3.47788        0.69401        0.34949
C         -1.76693        1.64299        0.92666
C         -1.83743        2.41062       -0.38867
N         -2.57843        0.40789        0.75523
N         -3.24697        2.58693       -0.75498
