30
1sa1msa1a1dma_51.log	Energy: -976497.8658579
S         -1.62325       -1.00199        0.20659
O         -0.76668       -1.25983        1.37035
O         -2.87593       -0.29772        0.44465
O         -0.81638       -0.24939       -0.86054
O         -1.97598       -2.38689       -0.46421
H         -1.10775       -2.91074       -0.54416
S          2.38408        0.51732       -0.08321
O          1.55648        1.72965       -0.06630
O          3.76498        0.61664       -0.50257
O          1.67609       -0.56323       -0.99671
H          0.65115       -0.46008       -0.95198
C          2.29616       -0.21131        1.53699
H          2.70058        0.51585        2.24242
H          1.24946       -0.44706        1.74864
H          2.90689       -1.11461        1.53044
N          0.44979       -3.53773       -0.47699
H          1.12144       -2.85076       -0.81394
H          0.63226       -4.41857       -0.94580
H          0.61748       -3.66131        0.51733
N         -1.13305        2.33897       -0.30624
C         -2.30141        2.81303       -1.07809
C         -1.28309        2.47209        1.16358
H         -0.98047        1.31590       -0.53631
H         -2.48500        3.86721       -0.86425
H         -2.10268        2.67252       -2.14044
H         -3.15996        2.20650       -0.78663
H         -1.42983        3.52324        1.41730
H         -2.13904        1.87133        1.47238
H         -0.37385        2.09181        1.62701
H         -0.26176        2.78808       -0.59579
