35
1sa1msa1ma1eda_161.log	Energy: -1035886.4915463
S          2.66353        1.21863        0.14145
O          4.02897        1.57431       -0.19412
O          1.82829        2.29971        0.69658
O          1.90666        0.46630       -0.89623
O          2.78274        0.08694        1.33783
H          3.60447        0.26460        1.81446
S          0.07489       -2.33818       -0.21191
O         -0.58612       -3.52984       -0.69608
O         -0.76204       -1.15821        0.07125
O          1.19231       -1.94646       -1.24415
H          1.54946       -1.00745       -1.08629
C          0.98676       -2.71228        1.26686
H          0.26280       -2.99231        2.03276
H          1.65359       -3.54468        1.04166
H          1.54862       -1.82170        1.55520
N         -0.69283        1.66834       -0.28872
H          0.14824        2.06502        0.17664
H         -0.60252        0.64442       -0.19475
C         -0.72027        2.04846       -1.71664
H         -1.58048        1.57901       -2.19620
H         -0.80180        3.13242       -1.79813
H          0.20162        1.70627       -2.18504
H         -1.58373        1.95389        0.19522
H         -5.25899        1.56697        0.44538
H         -4.30022        2.09911       -0.94593
H         -4.63893       -0.37639       -0.91522
H         -2.93752        0.06032       -0.86145
H         -4.44325       -1.18010        1.24637
H         -2.83464       -1.24037        0.89059
H         -3.53187        3.07045        1.17298
H         -3.18995        1.55166        1.70281
C         -4.25643        1.53860       -0.00559
C         -3.86791        0.08541       -0.28468
N         -3.24650        2.14374        0.87353
N         -3.64051       -0.62941        0.96891
