38
1sa1msa1dma1eda_120.log	Energy: -1060551.8856997
S         -0.49479       -1.46982       -0.32082
O         -0.82888       -0.28851       -1.18546
O          0.53053       -2.34666       -0.93524
O         -0.09566       -1.03068        1.03333
O         -1.79925       -2.31947       -0.23707
H         -2.68326       -1.72747       -0.31468
S          1.43859        2.22226       -0.10358
O          1.90317        3.57653       -0.30647
O          2.45644        1.17763        0.09469
O          0.52829        1.84730       -1.32875
H          0.08317        0.92720       -1.25971
C          0.33345        2.15526        1.28842
H          0.90900        2.45720        2.16464
H         -0.48151        2.85553        1.10420
H         -0.02485        1.12684        1.38927
N          2.79958       -1.54580        0.24480
C          4.00929       -1.71477       -0.58369
C          2.88518       -2.12570        1.60101
H          2.58205       -0.53357        0.31002
H          4.20061       -2.77900       -0.72847
H          3.83889       -1.23542       -1.54742
H          4.85970       -1.24453       -0.08761
H          3.08040       -3.19596        1.51777
H          3.69181       -1.64020        2.15308
H          1.92565       -1.95953        2.09101
H          1.96181       -1.95595       -0.24941
H         -5.28483        0.32263        0.61219
H         -4.36157       -0.83260        1.60589
H         -3.55949        1.55550        1.76837
H         -2.30837        0.40757        1.28409
H         -2.97686        2.66413       -0.10970
H         -2.20548        1.36136       -0.76375
H         -4.71659       -1.60946       -0.68133
H         -3.86116       -0.32373       -1.23493
C         -4.31042       -0.16529        0.73981
C         -3.23354        0.89866        0.95545
N         -3.96650       -0.96520       -0.44808
N         -3.03749        1.66848       -0.27094
