35
1sa1msa1ma1eda_149.log	Energy: -1035887.9635831
S          0.17461        0.44187       -0.95315
O         -1.04453        1.02638       -1.55285
O          1.41123        1.15051       -1.27460
O          0.02646        0.66451        0.65153
O          0.25435       -1.02496       -1.14687
H         -0.87648        0.37046        0.92223
H          1.74668       -1.60461       -0.53499
S         -3.71501        0.03955        0.41113
O         -4.52902        1.15195        0.85761
O         -2.47285       -0.24244        1.14920
O         -3.39363        0.14338       -1.12423
H         -2.44663        0.48472       -1.30606
C         -4.69846       -1.44017        0.41777
H         -5.00451       -1.61482        1.44957
H         -5.56777       -1.27099       -0.21744
H         -4.08949       -2.26214        0.04346
N          2.66503       -1.75816       -0.05859
H          3.38686       -1.18135       -0.55720
C          3.01056       -3.17897        0.08978
H          3.96498       -3.27362        0.60971
H          2.23336       -3.68634        0.66217
H          3.08868       -3.64199       -0.89433
H          2.62395       -1.22650        0.84640
H          2.61550        1.89451        0.64290
H          3.65191        2.17958        2.04265
H          5.11647        2.06043        0.25493
H          5.29388        0.48657        1.03841
H          3.49768        0.87336       -1.26177
H          5.06835        0.41224       -1.42347
H          3.12296        0.10138        2.85058
H          1.74365        0.42301        2.01512
C          3.36550        1.43328        1.29096
C          4.60361        1.10905        0.45491
N          2.74357        0.25366        1.92200
N          4.27327        0.40159       -0.79332
