32
1sa1msa1a1eda_180.log	Energy: -1011229.7849351
S          2.48326       -0.81476       -0.32143
O          3.10442       -1.92035       -1.02581
O          3.09307        0.51207       -0.52035
O          1.00333       -0.71451       -0.41424
O          2.66061       -1.14674        1.28784
H          3.50873       -1.59487        1.40298
S         -2.23885       -1.17083       -0.05492
O         -2.31274       -0.23501       -1.17002
O         -2.19831       -0.59409        1.28998
O         -1.05162       -2.18793       -0.25151
H         -0.16119       -1.69877       -0.32976
C         -3.59258       -2.31577       -0.14518
H         -4.50575       -1.73730       -0.00309
H         -3.57902       -2.78515       -1.12823
H         -3.47465       -3.05434        0.64713
N          0.33222        0.72472        2.31002
H          0.26120        1.11439        3.24417
H          1.07132        0.02321        2.31651
H         -0.54110        0.23681        2.10424
H          0.28456        2.66976       -1.86593
H         -0.26456        1.12125       -1.19012
H         -2.12601        2.76727       -1.19077
H         -1.68887        2.29318        0.44490
H         -1.02276        4.84646       -0.82832
H         -1.69196        4.57846        0.63539
H          1.85875        1.79462       -0.24957
H          1.12092        3.22633        0.31807
C         -0.08468        2.17103       -0.96474
C         -1.33833        2.84574       -0.43229
N          0.97896        2.24649        0.06681
N         -1.01789        4.21970       -0.03016
H          0.69041        1.71828        0.95342
