40
1sa1msa2eda_199.log	Energy: -1095281.5201906
S         -0.71110       -1.61705       -0.31560
O         -1.16981       -2.94946        0.03697
O          0.53673       -1.53741       -1.12070
O         -1.80135       -0.97581       -1.32076
O         -0.65658       -0.67812        0.84231
H         -2.68923       -0.99225       -0.83861
H          0.13508        0.88223        0.81215
S          3.33150       -0.06275        0.31390
O          2.57254        0.55524        1.40452
O          3.44987        0.72289       -0.90977
O          2.80198       -1.50611        0.01193
H          1.87525       -1.51853       -0.43724
C          4.94850       -0.48704        0.91254
H          4.83607       -1.12566        1.78809
H          5.48513       -0.99984        0.11494
H          5.44379        0.44836        1.17419
H          0.45394        3.63972       -0.26562
H          1.84853        2.52616       -0.15131
H          0.92087        2.38176       -2.38334
H          0.69830        0.86366       -1.54345
H         -1.33139        2.55476       -2.56338
H         -1.43807        1.01669       -1.98425
H          0.65189        2.13209        1.75490
H         -0.86350        2.16839        1.01661
C          0.76766        2.59264       -0.27812
C          0.35915        1.90402       -1.57294
N          0.13886        1.92498        0.90011
N         -1.08875        1.95131       -1.78785
H         -3.84951        0.61745        2.34726
H         -4.61412        1.99231        1.56390
H         -5.79127       -0.06937        0.99548
H         -5.07994        0.65266       -0.45606
H         -3.76910       -1.54478        1.00171
H         -4.69010       -1.73861       -0.32568
H         -2.16406        0.62687        0.71666
H         -2.80449        1.87486       -0.10236
C         -4.01878        1.09302        1.37326
C         -4.84078        0.14946        0.48804
N         -2.72188        1.47325        0.82964
N         -4.09282       -1.07447        0.15809
