24
1sa1msa2a_88.log	Energy: -927160.4884256
S          1.64646        0.74323       -0.18575
O          0.69434        1.44910       -1.01534
O          3.04709        1.09256       -0.17718
O          1.17071        0.77817        1.32405
O          1.50274       -0.79595       -0.55498
H          0.21680        0.49667        1.35659
H          2.35940       -1.33775       -0.19769
S         -2.03925       -0.85583        0.10381
O         -1.32331       -0.08926        1.13600
O         -3.21284       -1.59876        0.49116
O         -1.01017       -1.90838       -0.52336
H         -0.10354       -1.52346       -0.57240
C         -2.40057        0.22223       -1.25618
H         -2.96372        1.06924       -0.85635
H         -1.45561        0.58947       -1.65970
H         -2.96521       -0.35293       -1.98950
N          3.62347       -1.93392        0.29516
H          4.02160       -2.63487       -0.32242
H          3.54756       -2.33452        1.22548
H          4.26566       -1.14489        0.34087
N         -1.93634        2.93794        0.33813
H         -2.04070        3.93404        0.49594
H         -1.02775        2.78193       -0.09105
H         -1.92472        2.47738        1.24260
