30
1sa1msa1a1dma_57.log	Energy: -976497.0371815
S         -1.30023       -1.60492        0.03928
O         -0.43428       -2.74112       -0.25026
O         -2.70574       -1.88436        0.31909
O         -0.71797       -0.60752        0.98149
O         -1.30417       -0.69207       -1.35322
H         -1.41884       -1.29455       -2.09924
S          2.48842        0.10991        0.04605
O          3.78134        0.68459        0.34784
O          1.54460        0.89001       -0.76456
O          1.79461       -0.24577        1.42337
H          0.81978       -0.47085        1.27962
C          2.69325       -1.47907       -0.72364
H          3.13922       -1.30889       -1.70420
H          3.35886       -2.06859       -0.09319
H          1.71379       -1.95689       -0.80658
N         -3.54836        1.04071        0.54017
H         -3.45741        0.02136        0.49373
H         -4.35704        1.29858       -0.01670
H         -3.76526        1.26772        1.50608
N         -0.97335        1.96923       -0.18955
C         -1.01896        2.82714       -1.38735
C         -0.45419        2.63818        1.02025
H         -1.93878        1.58969        0.02615
H         -0.00943        3.16840       -1.61942
H         -1.40675        2.23756       -2.21794
H         -1.67342        3.67986       -1.19752
H          0.56723        2.97189        0.83505
H         -1.09564        3.48682        1.26528
H         -0.46183        1.91399        1.83443
H         -0.36133        1.16681       -0.39082
