39
1sa1msa1dma1tma_38.log	Energy: -1050477.6274182
S          0.84185        1.22684        0.57888
O          0.11147        2.31631        1.22540
O          1.27975        0.11500        1.43401
O          0.00695        0.68626       -0.58432
O          2.12202        1.84988       -0.08677
H          2.85732        1.09702       -0.17175
S         -1.28548       -2.41483        0.02573
O         -1.68590       -3.70548       -0.49589
O         -2.30911       -1.38758        0.24011
O         -0.18263       -1.83044       -0.94698
H         -0.07056       -0.82744       -0.79925
C         -0.40663       -2.63559        1.55561
H         -1.13229       -2.97150        2.29729
H          0.35686       -3.39670        1.39328
H          0.04645       -1.68011        1.83161
N          3.84811       -0.06516       -0.18556
C          5.23084        0.35351       -0.40613
C          3.39112       -1.08925       -1.12843
H          3.73046       -0.41308        0.76319
H          5.30938        0.82163       -1.39142
H          5.51230        1.09278        0.34678
H          5.93687       -0.48737       -0.36504
H          3.35511       -0.65882       -2.13306
H          4.05456       -1.96467       -1.14459
H          2.38401       -1.40984       -0.85527
N         -2.46398        1.73034       -0.42228
C         -2.18347        3.14641       -0.76680
H         -1.47644        3.53718       -0.03488
H         -1.73318        3.18179       -1.75936
H         -3.12009        3.70870       -0.75630
C         -3.33313        1.07131       -1.42714
H         -2.85769        1.15320       -2.40536
H         -3.43767        0.02128       -1.15461
H         -4.30457        1.57100       -1.44160
C         -3.00551        1.60083        0.95568
H         -3.14212        0.54104        1.16689
H         -2.27385        2.02640        1.64271
H         -3.95653        2.13604        1.01256
H         -1.52886        1.23814       -0.44195
