38
1sa1msa1dma1eda_320.log	Energy: -1060542.5923660
S         -0.07681        0.76759        1.17096
O         -1.27620        1.52729        1.50165
O          1.19872        1.42983        1.51264
O         -0.10825       -0.65165        1.61264
O         -0.12105        0.68473       -0.45574
H         -1.17188       -1.48627        0.67825
H          0.75730        0.36541       -0.77721
S          3.58764        0.04621       -0.52222
O          4.26740        1.13416       -1.19474
O          2.28252       -0.38087       -1.05869
O          3.44598        0.31087        1.02192
H          2.55689        0.75622        1.25303
C          4.64918       -1.37680       -0.48259
H          4.84567       -1.65239       -1.51906
H          5.57381       -1.09479        0.02074
H          4.13899       -2.17886        0.04923
N         -1.97208       -1.90238        0.13227
C         -2.54868       -3.00966        0.91664
C         -1.51719       -2.28610       -1.21650
H         -2.69054       -1.10580        0.10559
H         -1.80520       -3.79898        1.03966
H         -2.83299       -2.62843        1.89799
H         -3.42793       -3.40616        0.40483
H         -0.77779       -3.08523       -1.13779
H         -2.36932       -2.62854       -1.80739
H         -1.05671       -1.41900       -1.68746
H         -3.16923        2.47352       -0.88639
H         -4.37856        2.19157       -2.13026
H         -5.27788        1.58223        0.01581
H         -5.15029        0.14282       -1.00329
H         -3.05744        0.82484        0.96007
H         -4.34259       -0.11665        1.32094
H         -1.87012        0.76517       -1.64122
H         -3.07666        0.07153       -2.56140
C         -3.69973        1.68580       -1.43255
C         -4.56377        0.88949       -0.45170
N         -2.70938        0.93717       -2.18426
N         -3.75035        0.18744        0.55319
