30
1sa1msa2ma_40.log	Energy: -976493.3919037
S         -2.19301       -1.13966       -0.07455
O         -2.84950       -0.02806       -0.77937
O         -2.90599       -2.40219       -0.02677
O         -0.76157       -1.20535       -0.47764
O         -2.06979       -0.65220        1.50257
H         -2.75941       -1.11279        1.99785
S          2.39711       -0.48402        0.03454
O          2.41442        0.42209        1.17797
O          2.00379        0.09005       -1.25634
O          1.53795       -1.76087        0.34732
H          0.55569       -1.62064        0.08891
C          3.99701       -1.23297       -0.12809
H          4.70652       -0.42937       -0.32672
H          4.23339       -1.73331        0.81075
H          3.96398       -1.94076       -0.95542
N         -0.28394        1.88025        1.31096
H         -0.92068        1.16963        1.66929
C         -0.55647        3.18131        1.92560
H         -0.45462        3.17749        3.01772
H          0.13468        3.92699        1.52326
H         -1.57434        3.49487        1.67848
H          0.65873        1.55890        1.52944
N         -0.54122        1.48596       -1.40564
H          0.20137        0.80282       -1.59933
H         -1.45110        0.99873       -1.46891
C         -0.44700        2.67861       -2.26281
H         -1.22051        3.39020       -1.97257
H          0.53470        3.13489       -2.13225
H         -0.58325        2.40282       -3.30882
H         -0.43040        1.72546       -0.35873
