32
1sa1msa1a1eda_130.log	Energy: -1011233.6594359
S         -1.81077       -1.46925        0.02197
O         -2.79098       -0.37276       -0.06248
O         -2.23260       -2.79082       -0.37515
O         -0.54632       -0.99611       -0.71123
O         -1.34241       -1.56371        1.53968
H         -0.98620       -0.65238        1.78860
S          2.57648       -0.12208       -0.24954
O          2.42242        0.48278        1.07713
O          2.21236        0.73967       -1.37901
O          1.84144       -1.49207       -0.33268
H          0.79836       -1.38203       -0.46301
C          4.25609       -0.65940       -0.43808
H          4.88415        0.22929       -0.37148
H          4.48341       -1.35761        0.36699
H          4.35568       -1.13599       -1.41269
N         -3.09037        1.92477       -1.82691
H         -3.24845        1.79824       -2.82167
H         -3.76835        2.60449       -1.49814
H         -3.28743        1.03325       -1.36166
H          0.92162        2.48314        0.50498
H         -0.42352        3.55921        0.08567
H         -0.85769        2.94402        2.28279
H         -1.96521        1.92422        1.34997
H          0.65897        0.82552        2.06077
H         -0.53893        0.86626        3.18355
H          0.28663        1.79000       -1.55009
H         -0.49251        0.66419       -0.66132
C         -0.15650        2.52895        0.33312
C         -0.90954        2.09772        1.58610
N         -0.45960        1.69675       -0.85832
N         -0.35330        0.87506        2.18536
H         -1.40054        1.93212       -1.27982
