23
1sa1msa1ma_55.log	Energy: -916322.1721298
S          1.37014       -0.99489        0.10031
O          1.04854       -0.17447        1.27743
O          0.54625       -2.17594       -0.09677
O          1.10413        0.00960       -1.18724
O          2.83798       -1.21916       -0.06257
H          0.15403        0.25143       -1.19378
H          3.47211        0.11638       -0.36911
S         -2.68357        0.28709       -0.15688
O         -1.57302        0.70354       -1.00056
O         -3.91388       -0.18456       -0.76620
O         -3.06990        1.57870        0.75118
H         -4.02246        1.72531        0.66153
C         -2.10226       -0.84414        1.07199
H         -1.72885       -1.72594        0.54663
H         -1.27002       -0.37630        1.60221
H         -2.93678       -1.08587        1.72957
N          3.59390        1.17492       -0.60381
H          4.44004        1.34244       -1.14243
C          3.53368        1.97168        0.64760
H          3.52493        3.03690        0.41638
H          2.62353        1.67932        1.17409
H          4.40075        1.72443        1.25926
H          2.77114        1.34522       -1.19213
