32
1sa1msa1a1eda_301.log	Energy: -1011221.9931250
S          0.32090       -1.36989       -0.13643
O         -1.01126       -2.01074       -0.12970
O          1.38440       -2.20383       -0.72006
O          0.22302       -0.12772       -1.14982
O          0.69705       -0.81259        1.18687
H         -0.58301        0.39760       -0.92790
H          2.44227       -1.22728        1.56211
S         -3.34451        0.53836       -0.08620
O         -4.24802        0.44990       -1.21515
O         -2.02028        1.14067       -0.31001
O         -3.16294       -0.85800        0.61762
H         -2.30040       -1.32365        0.33397
C         -4.13754        1.43498        1.22628
H         -4.33720        2.43847        0.84937
H         -5.06886        0.92407        1.46995
H         -3.46493        1.46283        2.08263
N          3.29591       -1.62738        1.12717
H          3.87792       -0.82682        0.68961
H          2.88378       -2.18737        0.35814
H          3.82830       -2.19640        1.77720
H          3.83063        1.63437       -1.81142
H          2.84764        0.20583       -1.44239
H          1.72232        2.26714       -0.71171
H          2.06560        1.21717        0.65099
H          3.54095        3.65646       -0.02986
H          2.84362        3.24937        1.38737
H          5.29212        0.13091       -0.78348
H          4.89025        1.19834        0.39928
C          3.43597        1.01264       -0.99574
C          2.53604        1.85792       -0.10091
N          4.53204        0.44180       -0.18581
N          3.33833        2.87541        0.58615
