27
1sa1msa1a1ma_102.log	Energy: -951830.9218377
S         -2.36153       -0.34486       -0.02000
O         -2.35424       -1.17476        1.17647
O         -2.50830        1.10058        0.13012
O         -1.18545       -0.68075       -0.91466
O         -3.65785       -0.85948       -0.84770
H         -3.86997       -0.19438       -1.51639
S          1.30116        1.59654        0.09272
O          2.62532        2.11043       -0.18648
O          1.15565        0.61822        1.18123
O          0.76143        0.95886       -1.24996
H         -0.06385        0.38225       -1.11425
C          0.17200        2.92675        0.41417
H         -0.83234        2.50386        0.49968
H          0.48825        3.39387        1.34752
H          0.24066        3.63079       -0.41500
N          0.39406       -2.03736        0.88943
H          0.66817       -1.11227        1.26060
H         -0.19695       -2.52049        1.56157
H         -0.19406       -1.80531        0.06517
H          1.26548       -2.56249        0.61103
N          2.87890       -2.95975       -0.07048
H          3.53979       -3.32023        0.61130
C          3.34879       -1.66519       -0.59915
H          4.32890       -1.72303       -1.08432
H          2.62451       -1.28620       -1.32419
H          3.40449       -0.93933        0.21483
H          2.83495       -3.64837       -0.81595
