30
1sa1msa1a1dma_112.log	Energy: -976483.3950315
S          0.73467        1.69888       -0.03969
O          0.04800        2.89527        0.41612
O          2.17999        1.76676       -0.26065
O          0.64524        0.58363        1.16930
O          0.01370        1.02446       -1.17447
H         -0.28935        0.46977        1.42017
H          0.56949       -0.49307       -1.38436
S         -2.65402       -0.64571        0.09527
O         -1.95570       -1.67084       -0.65866
O         -2.09420       -0.17479        1.35915
O         -4.12048       -1.23928        0.44562
H         -4.28142       -1.11054        1.39196
C         -3.05325        0.72183       -0.95414
H         -2.09155        1.15899       -1.24431
H         -3.60177        0.33629       -1.81353
H         -3.65138        1.42523       -0.37545
N          0.92812       -1.48452       -1.27875
H          1.07662       -1.90944       -2.18900
H          0.19331       -1.99210       -0.78546
H          1.86665       -1.40944       -0.69989
N          3.19127       -0.99898        0.11289
C          4.43145       -1.25198       -0.61585
C          3.20093       -1.53960        1.47106
H          3.02692        0.01202        0.15338
H          4.56361       -2.32962       -0.76148
H          4.38168       -0.76971       -1.59550
H          5.31474       -0.86776       -0.08715
H          3.24894       -2.63347        1.43207
H          4.05835       -1.17904        2.05618
H          2.28185       -1.23746        1.97653
