23
1sa1msa1ma_65.log	Energy: -916316.3306002
S          2.16063       -0.51735        0.11602
O          3.38966       -1.19494        0.41523
O          1.22396       -0.14256        1.16490
O          2.49226        0.88657       -0.59637
O          1.41857       -1.32764       -0.99569
H          3.27517        0.78271       -1.15733
H          0.46182       -1.02006       -1.09344
S         -2.07963       -0.67952       -0.10792
O         -2.99772       -1.76246       -0.35974
O         -0.99726       -0.41862       -1.08013
O         -1.39936       -0.94107        1.30843
H         -0.48161       -0.58263        1.33302
C         -2.94910        0.84203        0.13106
H         -3.41070        1.09732       -0.82380
H         -3.70959        0.66578        0.89228
H         -2.21238        1.59285        0.44904
N         -0.30561        2.60043        0.74273
H         -0.25546        3.40646        1.35636
C         -0.07785        2.99178       -0.64901
H          0.89964        3.45669       -0.83492
H         -0.15963        2.10495       -1.28320
H         -0.85625        3.69547       -0.95923
H          0.41323        1.95019        1.04707
