35
1sa1msa1ma1eda_39.log	Energy: -1035900.1613757
S          2.43354       -1.19041        0.02670
O          3.04608       -0.19170        0.90214
O          1.93854       -2.39823        0.72314
O          1.42502       -0.63749       -0.90847
O          3.59391       -1.70332       -0.99253
H          4.32455       -2.04985       -0.46257
S         -2.85656        0.36105       -0.15534
O         -3.06717       -0.81360       -1.01977
O         -2.47796        1.61069       -0.83394
O         -1.85979        0.03011        0.94569
C         -4.39628        0.67043        0.69232
H         -5.14273        0.92442       -0.06073
H         -4.68461       -0.23348        1.22904
H         -4.25071        1.50074        1.38337
N         -0.74406       -2.31722        0.00480
H          0.20302       -2.51353        0.38807
H         -1.14391       -1.48192        0.49246
C         -1.66998       -3.46645        0.07291
H         -2.61406       -3.16597       -0.38037
H         -1.23757       -4.31397       -0.45871
H         -1.82224       -3.72970        1.11941
H         -0.59731       -2.00267       -0.95596
H          0.60978        3.07379        1.64560
H          1.69093        1.64997        1.69185
H          2.91404        3.64524        0.84462
H          2.81087        2.35864       -0.35593
H          1.27672        4.85433       -0.38709
H          2.09108        4.12760       -1.60786
H         -0.51485        1.17008        0.65964
H         -0.15971        2.28314       -0.52324
C          1.19864        2.37604        1.04364
C          2.22221        3.10631        0.18407
N          0.26259        1.64574        0.15963
N          1.53048        3.95607       -0.78285
H          0.75550        0.89105       -0.36203
