41
1sa1msa1tma1eda_43.log	Energy: -1085219.5406818
S          2.69836       -0.05543       -0.32080
O          2.56691       -1.10770       -1.35481
O          3.14621        1.23898       -0.84358
O          1.53048        0.01493        0.57311
O          3.87488       -0.57878        0.68645
H          4.70385       -0.59543        0.18952
S         -2.68967       -0.01017       -0.41485
O         -2.61019       -0.97272       -1.53287
O         -3.20554        1.32492       -0.75759
O         -1.35725        0.08480        0.29874
C         -3.79387       -0.72109        0.79498
H         -3.89627       -0.01617        1.62066
H         -4.75792       -0.88988        0.31442
H         -3.35518       -1.65762        1.14416
H         -1.20782       -3.50454       -0.27311
H          0.39521       -3.98757       -0.89299
H          0.50267       -4.14812        1.49030
H          1.41676       -2.69451        1.05685
H         -0.19326       -2.43320        2.92137
H         -0.54997       -1.41090        1.70121
H          0.94587       -1.73689       -1.30985
H         -0.67552       -1.90042       -1.83199
C         -0.14897       -3.23967       -0.31207
C          0.40731       -3.12980        1.10057
N         -0.03664       -1.94429       -1.03489
N         -0.51633       -2.39507        1.96102
H         -0.35066       -1.15046       -0.43406
N         -0.00186        2.52412        0.42812
C         -1.22687        3.10102        1.04071
H         -2.09911        2.70180        0.52048
H         -1.25314        2.82000        2.09420
H         -1.18133        4.18813        0.94537
C          1.22790        2.99452        1.11669
H          1.20625        2.64057        2.14736
H          2.09842        2.58818        0.60305
H          1.23850        4.08658        1.09102
C          0.04854        2.78967       -1.03525
H          0.94216        2.31143       -1.43850
H         -0.85712        2.38053       -1.48465
H          0.09701        3.86935       -1.19239
H         -0.07290        1.49202        0.51871
