30
1sa1msa2ma_105.log	Energy: -976488.7862352
S          0.71729       -1.05720        0.36376
O         -0.48886       -1.90831        0.41495
O          1.97021       -1.76561        0.12643
O          0.56583       -0.12735       -0.96142
O          0.77229       -0.09513        1.49739
H         -0.34378        0.25603       -0.96435
H          1.90714        1.03475        1.16873
S         -3.15485        0.16784       -0.31970
O         -3.93723       -0.33349       -1.43081
O         -1.91486        0.90056       -0.63079
O         -2.83776       -0.96542        0.72243
H         -1.89482       -1.34600        0.61685
C         -4.17317        1.22215        0.68357
H         -4.48254        2.05845        0.05597
H         -5.03941        0.64518        1.00714
H         -3.58662        1.56360        1.53557
N          3.98269        0.08589       -0.94792
H          3.27463       -0.65315       -0.93161
C          5.24422       -0.44884       -0.42042
H          5.64657       -1.27338       -1.01920
H          5.99558        0.34427       -0.37135
H          5.06932       -0.82421        0.59068
H          4.09190        0.37980       -1.91353
N          2.60173        1.72589        0.76659
H          3.16740        2.10361        1.52276
C          1.88364        2.78662        0.02712
H          2.59919        3.49373       -0.39458
H          1.31883        2.30556       -0.77067
H          1.19456        3.30433        0.69434
H          3.22717        1.15316        0.09052
