36
1sa1msa1ma1tma_80.log	Energy: -1025806.3273841
S         -0.26798       -1.16787        0.68145
O         -1.44467       -1.91753        1.10032
O          0.97902       -1.90795        0.47113
O         -0.57932       -0.27780       -0.48237
O          0.10677       -0.20164        1.89462
H          0.99899        0.15823        1.63432
S          3.28020        0.12411       -0.27341
O          4.40818       -0.68274        0.15302
O          2.44944        0.76769        0.77499
O          2.32941       -0.66239       -1.27153
H          1.79017       -1.30575       -0.71788
C          3.82439        1.39188       -1.39538
H          4.52940        2.01371       -0.84094
H          4.31640        0.90670       -2.23697
H          2.95620        1.96806       -1.71180
N         -1.63647        2.30078        0.69088
H         -1.30110        1.94535        1.58285
C         -1.56891        3.75914        0.65568
H         -0.55336        4.17550        0.71615
H         -2.03098        4.13240       -0.26473
H         -2.14646        4.16634        1.48993
H         -1.00795        1.88015        0.01627
N         -3.20804       -0.31432       -0.75246
C         -3.82034       -0.05292        0.57494
H         -3.44725       -0.80141        1.27249
H         -3.49168        0.94287        0.87947
H         -4.90819       -0.11023        0.47546
C         -3.57951        0.74392       -1.71957
H         -3.25931        1.69876       -1.30255
H         -3.07477        0.55443       -2.66884
H         -4.66322        0.73279       -1.86502
C         -3.53124       -1.66779       -1.26267
H         -3.11204       -1.77389       -2.26558
H         -3.05927       -2.39334       -0.60097
H         -4.61643       -1.79501       -1.29063
H         -2.14022       -0.28716       -0.63786
