33
1sa1msa1a1tma_06.log	Energy: -1001163.4486658
S          3.02489       -0.32673       -0.07782
O          2.86520       -1.41505       -1.05464
O          3.17384        1.00964       -0.65831
O          2.00907       -0.39996        1.00749
O          4.40420       -0.62403        0.74004
H          5.14265       -0.43717        0.14510
S         -2.67927       -0.84186        0.10306
O         -3.07132        0.24130        1.01807
O         -2.32541       -2.12749        0.73174
O         -1.56916       -0.38016       -0.82981
C         -4.07274       -1.16062       -0.96538
H         -4.89700       -1.50260       -0.33892
H         -4.33759       -0.23435       -1.47553
H         -3.79057       -1.93062       -1.68327
N          0.35803       -2.23908       -0.07250
H          1.02821       -2.74749       -0.64799
H          0.92427       -1.63150        0.56783
H         -0.21740       -1.59403       -0.64507
H         -0.30906       -2.82341        0.43418
N         -0.68401        2.09097       -0.05208
C          0.37979        2.58531       -0.96435
H          1.27251        1.96282       -0.86969
H          0.00196        2.55095       -1.98715
H          0.62222        3.61522       -0.69261
C         -1.90359        2.93395       -0.11871
H         -2.23399        2.99149       -1.15682
H         -2.67592        2.46350        0.48977
H         -1.66351        3.93329        0.25089
C         -0.19854        1.94537        1.34801
H         -1.01336        1.52816        1.94106
H          0.65970        1.26984        1.35253
H          0.08862        2.93043        1.72269
H         -0.97075        1.13165       -0.37284
