33
1sa1msa1ma1dma_93.log	Energy: -1001153.1389174
S         -1.31115       -1.58384        0.08800
O         -0.13684       -1.46117        1.00645
O         -2.57626       -1.53940        0.82674
O         -1.20786       -0.69403       -1.06790
O         -1.20425       -3.06962       -0.56185
H         -1.44625       -3.71031        0.12069
S          2.74097        0.11035       -0.06742
O          3.13676        0.72773        1.19143
O          1.77951        0.85658       -0.88511
O          2.24045       -1.36074        0.14937
H          1.26520       -1.40735        0.47725
C          4.18811       -0.22944       -1.03855
H          4.66412        0.72951       -1.24489
H          4.84779       -0.86841       -0.45209
H          3.87786       -0.71962       -1.96053
N         -3.39273        1.29396        0.29794
H         -3.36319        0.34229        0.67206
C         -3.89635        1.25135       -1.08253
H         -4.90816        0.83715       -1.16157
H         -3.90086        2.26054       -1.50524
H         -3.22140        0.62670       -1.67199
H         -4.01380        1.83547        0.89061
N         -0.66917        1.84543        0.18440
C         -0.40161        3.10376       -0.53602
C         -0.13484        1.81544        1.56430
H         -1.72410        1.66890        0.22677
H          0.67628        3.24451       -0.61792
H         -0.83799        3.03382       -1.53291
H         -0.85585        3.93329        0.00924
H          0.94160        1.99098        1.54409
H         -0.63839        2.58631        2.15108
H         -0.32880        0.82849        1.98605
H         -0.26180        1.06648       -0.35258
