32
1sa1msa1a1eda_82.log	Energy: -1011236.6082221
S         -2.13329       -1.18068       -0.26534
O         -1.87734       -0.35685       -1.46110
O         -1.65044       -2.55627       -0.34695
O         -1.73336       -0.49593        0.99503
O         -3.75376       -1.23131       -0.10439
H         -4.12444       -1.58025       -0.92639
S          2.75849       -0.13144       -0.16691
O          2.34206        0.94395       -1.10798
O          2.34201       -1.48633       -0.57972
O          2.33874        0.16662        1.24073
C          4.54084       -0.09453       -0.17626
H          4.87538       -0.30259       -1.19266
H          4.86546        0.89606        0.14241
H          4.90075       -0.85914        0.51227
N          0.57698       -1.86512        1.61172
H          0.79697       -2.27585        0.69579
H          1.29702       -1.11519        1.74467
H         -0.36526       -1.41962        1.54278
H          0.59833       -2.57534        2.33671
H         -0.18778        1.35294        1.01024
H          0.74837        2.78920        0.58957
H         -1.35666        3.32570        1.83508
H         -1.29847        4.10643        0.25277
H         -2.75080        1.59200        0.72490
H         -3.43008        3.07054        0.46135
H          0.73073        1.41106       -1.22106
H         -0.94374        1.09725       -1.17527
C         -0.19273        2.26550        0.41427
C         -1.39529        3.13320        0.75128
N         -0.21094        1.82244       -1.00752
N         -2.61492        2.49776        0.28173
H         -0.39695        2.59924       -1.63935
