30
1sa1msa2ma_31.log	Energy: -976494.0056268
S          1.88163       -1.28247       -0.15349
O          0.97188       -0.34416       -0.87349
O          2.89522       -1.92223       -0.97088
O          2.34866       -0.68050        1.10743
O          0.83532       -2.47872        0.27954
H          1.50280        0.85740        1.39029
H          1.32659       -3.31045        0.24988
S         -2.40920       -0.29797        0.04939
O         -3.73482        0.15123       -0.31089
O         -1.66473        0.45652        1.06706
O         -1.55507       -0.35931       -1.27765
H         -0.56116       -0.43572       -1.10134
C         -2.46553       -1.99231        0.58139
H         -3.03225       -2.01850        1.51282
H         -2.96820       -2.56931       -0.19474
H         -1.44030       -2.33514        0.73108
N          0.85518        1.66520        1.30347
H          1.07761        2.12921        0.37425
C          0.93827        2.59738        2.44133
H          0.20946        3.39704        2.30663
H          0.72363        2.06593        3.36852
H          1.94133        3.02186        2.49019
H         -0.08889        1.25515        1.21181
N          1.32176        2.58194       -1.30226
H          2.03072        3.25480       -1.57509
C          0.03167        2.90286       -1.92817
H          0.08083        2.96437       -3.02144
H         -0.69432        2.12997       -1.66590
H         -0.33524        3.85751       -1.54192
H          1.63166        1.66263       -1.61411
