36
1sa1msa2dma_41.log	Energy: -1025821.0490889
S          1.44056        0.74959        0.74070
O          1.65205        0.72840       -0.74047
O          0.86729       -0.68863        1.12022
O          2.72303        0.80471        1.46964
O          0.45526        1.76509        1.14708
H          3.89076       -0.14926        0.45166
H         -1.00473        1.86881        0.27379
S         -2.66506       -1.32249        0.12104
O         -3.47825       -0.08143       -0.08301
O         -2.78308       -1.92600        1.44467
O         -1.24903       -1.06425       -0.31594
H          0.00138       -0.86847        0.63175
C         -3.30242       -2.49720       -1.06481
H         -4.35361       -2.66992       -0.83221
H         -3.19224       -2.07882       -2.06532
H         -2.73296       -3.42155       -0.96492
N          3.93720       -0.64415       -0.46451
C          3.64005       -2.07948       -0.25044
C          5.19005       -0.35790       -1.18603
H          3.10755       -0.18709       -0.92231
H          4.44775       -2.53269        0.32605
H          2.69851       -2.14802        0.29699
H          3.54786       -2.57299       -1.21888
H          6.03415       -0.76366       -0.62643
H          5.14901       -0.81909       -2.17386
H          5.29925        0.72176       -1.28791
N         -1.81141        1.99668       -0.37491
C         -1.28637        1.93297       -1.75479
C         -2.51949        3.24600       -0.04292
H         -2.45930        1.17481       -0.22883
H         -0.56794        2.74005       -1.90610
H         -0.78504        0.97279       -1.87394
H         -2.11698        2.02195       -2.45751
H         -1.83139        4.08851       -0.13088
H         -3.36003        3.37542       -0.72676
H         -2.88955        3.17673        0.97995
