35
1sa1msa1ma1eda_106.log	Energy: -1035887.3409305
S          2.17539       -1.00133       -0.32443
O          2.57251       -0.83243        1.08644
O          1.21871       -2.13383       -0.50503
O          1.76332        0.23029       -0.98514
O          3.50940       -1.46262       -1.12308
H          3.82975       -2.28542       -0.72918
S         -2.06965       -1.24684        0.09623
O         -3.17603       -0.44541       -0.39716
O         -1.26284       -0.69891        1.19431
O         -1.15328       -1.60922       -1.11415
H         -0.16682       -1.80941       -0.85568
C         -2.68918       -2.82222        0.63864
H         -3.36581       -2.63973        1.47388
H         -3.21826       -3.28139       -0.19629
H         -1.84081       -3.43242        0.94985
N          0.72425        1.21225        1.71381
H          1.58041        0.64865        1.57489
H          0.71522        2.04659        1.05349
C          0.56180        1.64074        3.11464
H         -0.38468        2.17224        3.21793
H          0.56093        0.76674        3.76609
H          1.38457        2.30119        3.38995
H         -0.05285        0.59094        1.43606
H          0.02932        3.94525       -1.97342
H          1.18989        2.62888       -1.67653
H         -0.96334        1.76315       -2.53150
H         -0.55798        1.13412       -0.94902
H         -2.59298        3.15415       -1.51203
H         -2.72323        1.76006       -0.66889
H          1.03463        4.23672        0.17411
H         -0.53426        3.78098        0.38531
C          0.25080        3.07373       -1.33869
C         -0.86306        2.04193       -1.47379
N          0.38440        3.46361        0.07598
N         -2.10181        2.53863       -0.87152
