40
1sa1msa2eda_309.log	Energy: -1095265.2982425
S         -0.69796       -1.62257       -0.03694
O          0.12833       -1.35962       -1.22576
O         -1.72588       -2.65658       -0.18999
O          0.25416       -2.16224        1.11368
O         -1.30116       -0.34164        0.48268
H          1.04620       -1.56832        1.18772
H         -2.80818       -0.66388        0.79029
S          3.32751       -0.38532       -0.01019
O          4.59079       -1.02381        0.28238
O          2.26769       -0.41391        1.01943
O          2.74270       -1.03193       -1.33231
H          1.74621       -1.10934       -1.30167
C          3.58364        1.30736       -0.46021
H          3.94568        1.82677        0.42769
H          4.32699        1.32429       -1.25745
H          2.61309        1.70544       -0.77796
H         -1.00668        2.17294        1.13380
H         -0.51692        3.85959        1.36129
H         -1.01822        3.42428       -0.97139
H          0.68706        3.85946       -0.75992
H         -0.16316        1.04613       -0.93359
H          0.39312        1.90633       -2.20459
H          0.98921        2.54924        2.56722
H          1.30164        1.55815        1.31363
C         -0.19849        2.89952        0.93943
C         -0.05204        3.07296       -0.56827
N          1.06575        2.51736        1.55663
N          0.41766        1.83917       -1.19311
H         -4.73262        1.31845        0.89130
H         -5.47951        1.41812       -0.70193
H         -5.65961       -0.87696       -0.13741
H         -4.26198       -0.80477       -1.24116
H         -4.19756       -1.08849        1.69461
H         -3.52062       -2.08716        0.52657
H         -3.39088        2.57004       -0.77274
H         -2.55135        1.20950       -0.38960
C         -4.60590        1.03072       -0.16908
C         -4.64769       -0.48905       -0.26987
N         -3.41149        1.55804       -0.80593
N         -3.77834       -1.11955        0.76762
