40
1sa1msa2eda_03.log	Energy: -1095297.7517396
S         -1.92551        1.86615        0.18314
O         -1.24181        1.03279       -0.83067
O         -3.03853        1.21133        0.86715
O         -0.96856        2.54712        1.08254
O         -2.57287        3.04463       -0.74220
H         -3.13092        3.59129       -0.17307
S          2.10094       -2.03776       -0.03245
O          3.16699       -1.20068       -0.60106
O          1.22919       -2.70584       -1.04042
O          1.26737       -1.30024        0.97351
C          2.89525       -3.35994        0.86587
H          3.48848       -3.93822        0.15720
H          3.53529       -2.91700        1.62918
H          2.12543       -3.98292        1.32149
H         -1.51387       -3.24316        0.58935
H         -1.31247       -1.61884        1.26462
H         -3.70267       -2.43558        1.46776
H         -3.56419       -0.96779        0.49536
H         -4.04890       -3.67144       -0.52534
H         -4.79033       -2.26632       -0.91884
H         -0.33613       -2.07884       -1.00433
H         -1.96038       -2.07721       -1.54009
C         -1.80972       -2.19538        0.48452
C         -3.32565       -2.03486        0.51822
N         -1.30807       -1.72609       -0.83012
N         -3.90051       -2.67818       -0.66654
H         -1.30393       -0.68490       -0.86708
H          2.65333        1.04455       -0.99852
H          0.98813        1.60818       -1.28017
H          2.64280        3.43804       -1.76348
H          1.56251        3.86292       -0.42947
H          4.33650        2.95883       -0.13044
H          3.64725        4.32959        0.44226
H          1.45161        0.38323        0.86330
H          2.28614        1.79023        1.32373
C          1.88583        1.75338       -0.67810
C          2.37630        3.19342       -0.72685
N          1.53996        1.41841        0.72822
N          3.47392        3.35484        0.22925
H          0.63595        1.86573        0.98694
