33
1sa1msa1a1tma_01.log	Energy: -1001169.0492694
S          1.48016       -1.50237       -0.31810
O          1.01619       -0.64196        0.82954
O          0.83528       -0.81952       -1.61718
O          2.91314       -1.44035       -0.55134
O          0.88577       -2.85117       -0.17978
H         -0.41024       -2.69639        0.88763
S         -2.31043        0.38408       -0.14389
O         -1.53908        1.63406       -0.00383
O         -2.56003       -0.30738        1.15829
O         -1.75396       -0.55219       -1.15816
H         -0.15173       -0.73581       -1.49236
C         -3.92625        0.84333       -0.74527
H         -3.79924        1.34449       -1.70502
H         -4.51840       -0.06440       -0.86079
H         -4.38093        1.51364       -0.01566
N         -0.98573       -2.38700        1.71350
H         -1.49313       -3.16138        2.13032
H         -1.64167       -1.59869        1.43417
H         -0.31310       -1.99379        2.36981
N          1.63491        1.90185        0.31616
C          1.32398        2.30118       -1.08146
H          1.72447        1.54252       -1.75362
H          0.23998        2.34280       -1.18544
H          1.78018        3.27522       -1.27559
C          1.02821        2.82729        1.30286
H         -0.04987        2.83210        1.14202
H          1.25084        2.46036        2.30568
H          1.45531        3.82392        1.16686
C          3.09538        1.73401        0.52346
H          3.26687        1.40581        1.54876
H          3.45775        0.96159       -0.15660
H          3.59481        2.68834        0.34127
H          1.22175        0.94158        0.48483
