28
1sa1msa1eda_135.log	Energy: -975725.3931236
S         -0.83866       -1.94171       -0.05400
O         -0.61503       -0.74019       -0.98353
O         -2.27961       -2.13581        0.11593
O         -0.00995       -3.06885       -0.41117
O         -0.37310       -1.37951        1.38935
H          0.59131       -1.18512        1.37031
S          2.57962        0.41417       -0.05289
O          3.52913       -0.15172       -0.98673
O          2.16944       -0.38977        1.10408
O          1.27724        0.92852       -0.79644
H          0.58478        0.17900       -0.90667
C          3.20308        1.96854        0.54292
H          4.13556        1.75005        1.06438
H          3.38874        2.61540       -0.31429
H          2.47299        2.40453        1.22374
H         -3.58732        1.35743        1.25764
H         -2.06172        0.44091        1.38254
H         -1.65422        2.93288        1.41008
H         -0.88371        2.13524        0.03730
H         -3.27123        3.81681       -0.07167
H         -1.97713        3.78640       -1.07099
H         -3.49262       -0.37241       -0.40584
H         -3.34197        1.15567       -1.16293
C         -2.63530        1.13720        0.76751
C         -1.85261        2.41023        0.46633
N         -2.92480        0.46914       -0.52825
N         -2.59306        3.20653       -0.51449
H         -2.00974        0.09690       -0.91651
