28
1sa1msa1eda_99.log	Energy: -975729.2291517
S          0.63837       -0.86349        0.07719
O         -0.11345       -0.04419       -0.90887
O          1.16058       -0.06894        1.19802
O         -0.37896       -1.94923        0.64122
O          1.69710       -1.68294       -0.56631
H         -1.22500       -1.49877        0.88565
H          3.09456       -1.17359       -0.04581
S         -3.23722        0.40435        0.09172
O         -4.43202        1.12565        0.46280
O         -2.68028       -0.57250        1.03546
O         -2.12419        1.47386       -0.26338
H         -1.26357        0.99390       -0.46125
C         -3.48551       -0.43591       -1.45858
H         -4.22749       -1.21684       -1.28843
H         -3.84716        0.29157       -2.18498
H         -2.53046       -0.86385       -1.76852
H          5.36266        0.68529       -0.61442
H          4.24898       -0.08767       -1.78004
H          3.70649        2.36947       -1.21576
H          2.37128        1.24829       -0.97086
H          3.60244        2.82512        1.01091
H          2.37491        1.72312        1.19594
H          4.73993       -1.33874        0.38467
H          3.80223       -0.14231        1.10264
C          4.33339        0.36358       -0.78994
C          3.35973        1.53507       -0.59930
N          3.99457       -0.66457        0.23116
N          3.30484        1.87900        0.81785
