33
1sa1msa1ma1dma_214.log	Energy: -1001137.3572111
S         -1.54265       -0.57711       -0.20059
O         -2.10709        0.78491        0.03155
O         -0.64181       -1.02361        0.87318
O         -2.63477       -1.53688       -0.49472
O         -0.69664       -0.49469       -1.54144
H         -4.12367       -0.73895       -0.52622
H          0.27651       -0.49292       -1.34788
S          2.77104       -0.59212        0.05967
O          3.64272        0.56492        0.07791
O          1.92595       -0.83520       -1.11586
O          1.88708       -0.62979        1.36804
H          0.90756       -0.66339        1.15107
C          3.77094       -2.04373        0.29927
H          4.47030       -2.09571       -0.53565
H          4.30566       -1.93345        1.24256
H          3.11655       -2.91477        0.31675
N         -4.64737        0.13907       -0.26834
H         -3.81674        0.77634       -0.18594
C         -5.33346       -0.01548        1.03338
H         -5.77107        0.93575        1.33488
H         -6.10757       -0.77782        0.95131
H         -4.58814       -0.32676        1.76463
H         -5.26677        0.43455       -1.01850
N          0.72889        1.96389       -0.01707
C          1.24648        2.56279       -1.23504
C          1.21728        2.61590        1.18578
H         -0.28632        1.97527       -0.02590
H          2.32945        2.40979       -1.27942
H          0.80066        2.06929       -2.10346
H          1.04942        3.64785       -1.31061
H          2.29945        2.47078        1.26094
H          1.01283        3.70195        1.21057
H          0.75588        2.15498        2.06379
