20
1sa1msa1a_01.log	Energy: -891681.4999167
S         -2.13554       -0.16689       -0.00881
O         -3.55015       -0.34677        0.11632
O         -1.62530        1.13705       -0.45823
O         -1.46730       -0.49433        1.38125
O         -1.58284       -1.27049       -0.98020
H         -0.47854       -0.31600        1.35480
H         -0.58355       -1.22427       -1.04942
S          1.83763       -0.29436       -0.06042
O          1.04614       -1.16428       -0.95887
O          1.07902        0.07846        1.17710
O          2.37094        0.92832       -0.72223
H          1.32484        2.14531       -0.37599
C          3.24539       -1.24847        0.45274
H          2.87843       -2.14106        0.95927
H          3.80898       -1.51510       -0.44141
H          3.84720       -0.63614        1.12387
N          0.51420        2.71669       -0.00121
H          0.65072        2.83350        1.00078
H         -0.35174        2.14444       -0.15262
H          0.43446        3.61975       -0.46075
