27
1sa1msa1a1ma_108.log	Energy: -951828.1497707
S          0.74881       -0.87681       -0.12097
O         -0.28797       -0.71754       -1.16572
O          1.69353       -1.98266       -0.40491
O          1.44498        0.37850        0.20783
O         -0.00709       -1.37111        1.19964
H         -0.79326       -0.79125        1.34768
S         -3.05676        0.53885        0.14255
O         -4.15263        1.46203        0.32412
O         -2.21606        0.20779        1.29985
O         -2.14372        1.10533       -1.01950
H         -1.33902        0.51277       -1.12293
C         -3.65340       -0.99653       -0.53446
H         -4.26946       -1.47057        0.23029
H         -4.24210       -0.76954       -1.42311
H         -2.78875       -1.61552       -0.78127
N          4.10222       -1.12244        0.33582
H          4.08515       -1.04997        1.35035
H          4.88110       -1.70965        0.05108
H          3.17598       -1.54700        0.02310
H          4.16618       -0.12056       -0.09959
N          3.95127        1.40085       -0.66339
H          4.38876        1.69512       -1.53083
C          4.16149        2.39974        0.39396
H          3.79847        3.39649        0.12192
H          3.61980        2.07876        1.28686
H          5.22608        2.46876        0.63320
H          2.94711        1.30276       -0.82647
