38
1sa1msa1dma1eda_230.log	Energy: -1060548.8794587
S          0.51743        2.19860       -0.07260
O          0.84341        1.41954       -1.30117
O         -0.84918        2.71581       -0.10610
O          0.90034        1.49820        1.16407
O          1.52658        3.46918       -0.07960
H          1.29599        4.03444       -0.82961
S          2.31069       -1.61894       -0.23170
O          3.00212       -2.83470       -0.60587
O          0.90133       -1.69451        0.15880
O          2.45931       -0.60803       -1.43967
H          1.84476        0.18483       -1.34815
C          3.20041       -0.80788        1.07888
H          3.16489       -1.46641        1.94801
H          4.22954       -0.66668        0.74881
H          2.70631        0.14404        1.28479
N         -1.28998       -0.28741        1.53796
C         -2.32687        0.67781        1.96934
C         -1.27979       -1.53758        2.32016
H         -1.42447       -0.49925        0.49489
H         -2.20160        0.88782        3.03354
H         -2.19889        1.59586        1.39442
H         -3.30298        0.23247        1.77032
H         -1.03605       -1.31435        3.36096
H         -2.27333       -1.98650        2.27251
H         -0.53317       -2.20615        1.89290
H         -0.36519        0.17248        1.57134
H         -3.81692       -1.87383       -2.18470
H         -4.91631       -0.61402       -1.62225
H         -2.87503        0.28385       -2.70941
H         -3.09151        0.87342       -1.05657
H         -1.30008       -1.37862       -1.67948
H         -0.81912        0.15941       -1.45393
H         -4.77839       -2.10210        0.12797
H         -3.16155       -2.24447        0.04862
C         -3.94103       -1.07368       -1.43651
C         -2.86455       -0.01633       -1.65243
N         -3.92627       -1.58536       -0.06165
N         -1.55478       -0.50848       -1.21866
