41
1sa1msa1tma1eda_44.log	Energy: -1085219.8595947
S          2.76941       -0.06354       -0.36054
O          2.71341       -1.04090       -1.45643
O          3.21693        1.27985       -0.73614
O          1.53640       -0.06284        0.46852
O          3.87331       -0.63213        0.70629
H          4.74008       -0.59370        0.28009
S         -2.57895        0.11328       -0.54554
O         -2.22915       -0.88719       -1.58726
O         -2.85884        1.46323       -1.06302
O         -1.54967        0.12971        0.54978
C         -4.07708       -0.48921        0.21554
H         -4.84914       -0.52767       -0.55322
H         -3.87776       -1.48669        0.61088
H         -4.36311        0.19954        1.01109
H         -0.41066       -4.05464       -0.56328
H          1.30251       -3.66422       -0.24161
H          0.09309       -4.15253        1.84143
H          0.72724       -2.50169        1.81307
H         -1.69050       -2.89311        2.54295
H         -1.46427       -1.70365        1.43818
H          0.72756       -1.99520       -1.64403
H         -0.85638       -1.80211       -1.10293
C          0.27013       -3.33408       -0.10556
C         -0.03205       -3.16925        1.37751
N          0.12080       -2.03974       -0.82249
N         -1.40094       -2.71099        1.58921
H          0.46209       -1.25392       -0.22792
N         -0.02325        2.48836        0.58412
C         -1.24715        3.13604        1.12479
H         -2.09074        2.85573        0.49322
H         -1.40592        2.78093        2.14333
H         -1.09738        4.21788        1.12089
C          1.16806        2.79889        1.41626
H          1.02943        2.35610        2.40259
H          2.05262        2.37975        0.94041
H          1.25612        3.88467        1.49760
C          0.19243        2.84657       -0.84566
H          1.09071        2.33728       -1.19598
H         -0.68955        2.53408       -1.40691
H          0.32695        3.92841       -0.91486
H         -0.20181        1.46356        0.60519
