27
1sa1msa1a1ma_33.log	Energy: -951834.3189795
S         -1.80765        0.06363        0.40304
O         -2.02648       -1.19292        1.10876
O         -0.69386       -0.01636       -0.61115
O         -3.11010        0.39629       -0.44234
O         -1.60089        1.26332        1.24778
H         -3.57022       -0.47422       -0.68868
H         -0.29484        2.06771        0.75619
S          2.53491       -0.62863        0.07817
O          2.61566       -0.81079        1.51547
O          2.50158        0.76781       -0.40485
O          1.34897       -1.42516       -0.55307
H          0.45108       -0.88947       -0.52770
C          3.90229       -1.44365       -0.70749
H          3.86212       -2.49966       -0.44080
H          3.81729       -1.30481       -1.78442
H          4.81210       -0.98347       -0.32142
N         -4.17093       -2.03418       -0.80970
H         -3.92028       -2.55939       -1.64036
H         -5.16308       -2.15783       -0.64002
H         -3.65478       -2.41787       -0.01950
N          0.50555        2.56498        0.26681
H          0.86365        3.29956        0.87270
C          0.02460        3.09315       -1.03198
H          0.84907        3.57052       -1.56156
H         -0.35283        2.24478       -1.60187
H         -0.78032        3.80596       -0.85458
H          1.26200        1.86803        0.10488
