35
1sa1msa1ma1eda_69.log	Energy: -1035896.0384565
S          0.62852        1.82831       -0.04587
O          0.10810        1.08576        1.11933
O          0.82145        0.75550       -1.22018
O         -0.31897        2.85334       -0.52564
O          2.01022        2.34199        0.12865
H          3.03415        1.19508       -0.28557
S         -1.63716       -1.89793       -0.18513
O         -2.13197       -3.21166       -0.57602
O         -2.68312       -0.82955       -0.16270
O         -0.43898       -1.45429       -0.97699
H          0.20323       -0.03710       -1.11367
C         -1.05174       -2.01750        1.50212
H         -1.89436       -2.30605        2.13179
H         -0.27931       -2.78761        1.53612
H         -0.64947       -1.04508        1.79221
N         -2.63993        1.73710        0.42196
H         -2.55244        0.70646        0.17447
H         -2.42826        1.81409        1.41545
C         -3.98337        2.24165        0.07785
H         -4.06224        3.29940        0.32996
H         -4.13555        2.10659       -0.99231
H         -4.73492        1.66720        0.61913
H         -1.87092        2.25328       -0.06176
H          4.69748       -1.07229        0.68114
H          3.81352        0.15605        1.62792
H          2.66135       -2.13085        1.58619
H          1.65699       -0.81229        0.97602
H          2.82663       -2.94415       -0.60222
H          1.42246       -2.09120       -0.82201
H          4.56431        0.68059       -0.81532
H          3.20768       -0.25434       -1.17432
C          3.77416       -0.49127        0.75026
C          2.54692       -1.41283        0.76515
N          3.66601        0.35545       -0.46880
N          2.40372       -2.02580       -0.54902
