26
1sa1msa1dma_67.log	Energy: -940973.6969371
S          3.13207       -0.51441       -0.17213
O          4.32412       -0.98530       -0.81719
O          1.90263       -1.28737       -0.20830
O          3.41340       -0.32037        1.39928
O          2.86312        0.94574       -0.67355
H          4.30875        0.02830        1.52230
H          1.96173        1.26456       -0.36514
S         -0.75720        0.91331        0.05033
O         -1.30842        0.92590       -1.28878
O          0.52170        1.61773        0.26668
O         -0.58283       -0.58365        0.57143
H          0.31168       -0.92349        0.31500
C         -1.94391        1.49741        1.21994
H         -2.15666        2.53383        0.95508
H         -2.82791        0.85651        1.09709
H         -1.50783        1.42581        2.21562
N         -3.90067       -0.74087       -0.04159
C         -4.64322       -0.06577       -1.09710
C         -4.67907       -1.76610        0.63670
H         -3.06461       -1.15789       -0.43898
H         -5.47297        0.49633       -0.65430
H         -3.98285        0.63750       -1.61018
H         -5.06695       -0.75811       -1.84400
H         -5.51686       -1.29697        1.16387
H         -5.09598       -2.52429       -0.04789
H         -4.05532       -2.27310        1.37765
