42
1sa1msa2tma_54.log	Energy: -1075125.1853805
S         -0.96012       -1.78493       -0.20609
O          0.14502       -2.44625       -0.92313
O         -2.23362       -2.49165       -0.15343
O         -0.51523       -1.66107        1.33198
O         -1.12581       -0.36870       -0.68456
H          0.42769       -1.36410        1.36853
H         -2.50808        0.13329       -0.31388
S          3.00123       -0.81552        0.14272
O          4.02041       -1.83249        0.30984
O          1.98801       -0.68556        1.20404
O          2.26455       -0.96594       -1.25035
H          1.45918       -1.57092       -1.17790
C          3.75276        0.77047       -0.09285
H          4.36811        0.95199        0.78948
H          4.37458        0.71871       -0.98689
H          2.95388        1.51708       -0.18056
N          1.08903        2.76189       -0.07886
C          0.31628        2.25592        1.03982
H          0.08800        1.20053        0.88036
H          0.88926        2.34959        1.96678
H         -0.63565        2.81462        1.17080
C          1.40581        4.16744        0.08516
H          1.94034        4.32155        1.02740
H          2.04857        4.50403       -0.73394
H          0.49952        4.80531        0.09590
C          0.42495        2.50394       -1.34498
H          1.06477        2.82869       -2.17115
H          0.22826        1.43465       -1.44911
H         -0.53856        3.04859       -1.42688
N         -3.46684        0.47722        0.04394
C         -3.46523        0.19869        1.50171
H         -3.34056       -0.87491        1.64562
H         -2.61944        0.71778        1.95410
H         -4.40461        0.54441        1.93991
C         -3.54627        1.92466       -0.24727
H         -2.70990        2.42665        0.24066
H         -3.47127        2.07305       -1.32506
H         -4.49375        2.32490        0.12201
C         -4.51037       -0.30263       -0.66461
H         -4.43453       -0.09714       -1.73284
H         -4.31707       -1.36115       -0.48908
H         -5.49611       -0.01143       -0.29306
