26
1sa1msa1dma_44.log	Energy: -940994.1140307
S          1.72709       -1.02649        0.07709
O          2.27206        0.20908        0.70372
O          0.98704       -1.91032        0.95483
O          1.04427       -0.68057       -1.20118
O          3.02813       -1.89535       -0.34529
H          3.56892       -1.37121       -0.95051
S         -2.23278       -0.28998       -0.01786
O         -3.59393        0.08152       -0.34404
O         -1.34919        0.71700        0.57896
O         -1.55988       -0.81415       -1.35433
H         -0.55607       -0.81271       -1.28697
C         -2.23361       -1.72073        1.03381
H         -2.71277       -1.42893        1.96912
H         -2.80652       -2.50124        0.53319
H         -1.19592       -2.01916        1.19680
N          1.16814        2.52368        0.05015
C          0.46858        2.51536       -1.26111
C          0.41189        3.18251        1.14447
H          1.42442        1.53161        0.32989
H          0.36144        3.54074       -1.61913
H          1.05083        1.91222       -1.95687
H         -0.50514        2.05260       -1.11263
H          0.23795        4.22832        0.88543
H         -0.53187        2.65219        1.26364
H          0.99639        3.11142        2.06186
H          2.07321        2.98138       -0.05709
