40
1sa1msa2eda_125.log	Energy: -1095292.1679783
S          1.37536        1.67173       -0.75683
O          1.89142        0.44436       -1.39998
O          0.06584        2.09867       -1.29093
O          1.43894        1.66047        0.71025
O          2.42924        2.84376       -1.15894
H          2.46192        2.90319       -2.12344
S         -1.41491       -1.80191       -0.61096
O         -2.84605       -2.07283       -0.41047
O         -0.53872       -3.00063       -0.68532
O         -0.86149       -0.83170        0.39388
C         -1.25537       -0.98642       -2.19441
H         -1.59352       -1.68194       -2.96314
H         -1.87397       -0.08817       -2.19007
H         -0.21018       -0.70954       -2.34071
H         -2.98812        2.38310        2.27445
H         -2.91594        3.20904        0.69676
H         -4.87944        1.75308        0.73834
H         -3.71644        1.04107       -0.37047
H         -4.74129       -0.13556        1.96809
H         -3.62887       -0.78635        0.93394
H         -1.11768        1.91287        0.02979
H         -0.78596        2.02584        1.61887
C         -2.85490        2.24066        1.20066
C         -3.90548        1.25306        0.69056
N         -1.49658        1.68552        0.97093
N         -3.87124        0.03652        1.48408
H         -1.46847        0.63630        1.00179
H          2.96887       -3.00795        1.41419
H          3.53945       -2.64920       -0.23593
H          4.81648       -1.41532        1.59044
H          4.09122       -0.35013        0.38365
H          3.66177       -0.18236        3.07877
H          2.67136        0.47487        1.93571
H          1.04940       -2.48144       -0.05357
H          1.26027       -1.34139        1.11757
C          3.07218       -2.22768        0.65690
C          3.86344       -1.03933        1.20699
N          1.71637       -1.76301        0.30138
N          3.09788       -0.38796        2.26579
H          1.75417       -1.00296       -0.40768
