36
1sa1msa2dma_94.log	Energy: -1025814.4138539
S          0.06517       -0.14869        1.13681
O         -1.12891       -0.43945        1.94873
O         -0.00913        1.19507        0.49313
O          1.35238       -0.39838        1.78487
O          0.06937       -1.20531       -0.08927
H         -0.80143       -1.14351       -0.55114
S         -3.52153       -0.09568       -0.53083
O         -4.84018       -0.32035       -1.07668
O         -2.37564       -0.76102       -1.16724
O         -3.56536       -0.49046        0.99924
H         -2.64118       -0.50018        1.39420
C         -3.17129        1.64815       -0.49226
H         -3.15945        1.99274       -1.52721
H         -3.96755        2.13794        0.06809
H         -2.19406        1.79098       -0.02446
N          2.57838        1.45777       -0.36562
C          2.81399        2.14334       -1.64683
C          3.32926        2.01075        0.77916
H          1.55912        1.46792       -0.12348
H          3.86831        2.05555       -1.91747
H          2.19951        1.67438       -2.41618
H          2.54661        3.19824       -1.55996
H          4.40062        1.91282        0.59068
H          3.07340        3.06294        0.91731
H          3.04620        1.44141        1.66542
H          2.83573        0.40706       -0.45819
N          3.19079       -1.21293       -0.45565
C          4.51122       -1.50519        0.09645
C          2.93099       -1.89109       -1.72368
H          2.47894       -1.48127        0.22367
H          5.28508       -1.11008       -0.57055
H          4.61080       -1.02402        1.07272
H          4.68759       -2.58282        0.22161
H          3.61287       -1.50933       -2.49114
H          3.06984       -2.97889       -1.65218
H          1.90144       -1.69245       -2.02792
