40
1sa1msa2eda_15.log	Energy: -1095301.0205242
S         -1.64275        1.52637       -0.75373
O         -3.08960        1.67587       -0.79584
O         -1.37572        0.20274       -1.66270
O         -0.84723        2.62104       -1.34172
O         -1.10187        1.15013        0.59199
H          0.83570        2.51578       -0.74725
H         -1.27280       -0.51002        0.79887
S          1.87660       -1.73863       -0.40840
O          0.95829       -2.58290        0.39324
O          3.09226       -1.30805        0.29660
O          1.15359       -0.56574       -1.02094
H         -0.44109       -0.09081       -1.55474
C          2.38673       -2.74107       -1.79312
H          2.90871       -3.61307       -1.39857
H          1.49700       -3.04220       -2.34641
H          3.04883       -2.14402       -2.42023
H          1.99255        3.47497        1.21217
H          0.75916        2.24627        1.60235
H          3.04249        1.94084        2.79537
H          2.44247        0.52863        1.92293
H          4.83803        1.87919        1.40745
H          4.19740        0.56712        0.63863
H          2.53919        2.26501       -0.72210
H          1.48680        1.03184       -0.40752
C          1.74169        2.41242        1.15906
C          2.82725        1.54584        1.79728
N          1.64280        2.05545       -0.27771
N          4.01525        1.51957        0.94285
H         -2.81655       -2.85559        1.77207
H         -2.13804       -1.55894        2.78731
H         -4.60394       -1.20072        2.18182
H         -3.54467        0.12431        1.68995
H         -5.06641       -1.52520       -0.03121
H         -4.13121       -0.21083       -0.40824
H         -0.69589       -2.09112        0.77346
H         -2.03727       -1.62191       -0.14195
C         -2.56873       -1.79191        1.81133
C         -3.79551       -0.92407        1.49720
N         -1.56099       -1.51814        0.76501
N         -4.16108       -1.09478        0.09476
