23
1sa1msa1ma_28.log	Energy: -916332.9651169
S         -1.10238        0.76312        0.10472
O         -2.45137        1.35301        0.21945
O         -0.24397        0.97328        1.28037
O         -1.17157       -0.67831       -0.28889
O         -0.44774        1.54174       -1.12023
H          0.50687        1.28823       -1.17587
S          2.71383       -0.27428       -0.06087
O          4.15176       -0.40399       -0.04086
O          2.09860        0.63309       -1.03837
O          2.25120        0.14563        1.39343
H          1.30945        0.48750        1.38461
C          1.96856       -1.87546       -0.27662
H          2.27181       -2.23707       -1.26011
H          2.34580       -2.53104        0.50815
H          0.88358       -1.75761       -0.22214
N         -3.80843       -0.75604       -0.61341
H         -2.81399       -1.08025       -0.69818
H         -3.61877        0.25193       -0.38383
C         -4.50430       -1.43305        0.50426
H         -5.49103       -0.99158        0.63994
H         -4.59344       -2.49792        0.29194
H         -3.90935       -1.28354        1.40461
H         -4.29598       -0.84230       -1.50185
