36
1sa1msa2dma_09.log	Energy: -1025831.0779013
S         -2.81192        0.01670       -0.03738
O         -3.07389        1.40738        0.33247
O         -3.87044       -0.70147       -0.72631
O         -1.45452       -0.13354       -0.65769
O         -2.54892       -0.80680        1.37313
H         -3.40338       -0.90830        1.81331
S          2.75032        0.09875       -0.05434
O          2.51723        1.35168       -0.82446
O          2.59631       -1.13230       -0.88275
O          1.93363        0.03851        1.18035
C          4.46562        0.14076        0.43104
H          5.07234        0.18035       -0.47379
H          4.62488        1.03001        1.04104
H          4.68107       -0.76355        1.00032
N         -0.02849        2.19397       -0.20683
C         -0.10369        2.55142        1.22784
C         -0.62616        3.19348       -1.11562
H          0.96432        1.99571       -0.46775
H         -1.15473        2.61974        1.51040
H          0.40160        1.76511        1.78908
H          0.40248        3.50601        1.38272
H         -1.68710        3.28645       -0.87950
H         -0.11692        4.14980       -0.98589
H         -0.50508        2.84689       -2.14206
H         -0.53183        1.29297       -0.34799
N          0.19393       -2.24825       -0.21673
C          0.23653       -2.70501        1.18880
C         -0.29461       -3.25426       -1.18027
H         -0.43253       -1.41662       -0.28720
H          0.86242       -3.59686        1.25503
H          0.66714       -1.89907        1.78284
H         -0.77868       -2.92217        1.52235
H          0.35315       -4.13184       -1.15018
H         -1.31830       -3.53053       -0.92292
H         -0.27851       -2.81495       -2.17744
H          1.14381       -1.90249       -0.49866
