20
1sa1msa1a_15.log	Energy: -891672.6988454
S          2.14656       -0.31323       -0.09187
O          3.26966       -1.16178       -0.42573
O          1.23577        0.10870       -1.16385
O          1.12018       -1.29375        0.80780
O          2.45676        0.81179        0.83030
H          1.64505       -1.83670        1.41095
H          1.43892        2.01080        0.46031
S         -2.26582       -0.08227        0.06028
O         -1.67325        1.25950        0.16701
O         -3.68005       -0.21625        0.31126
O         -1.52829       -1.05650        1.07242
H         -0.54040       -1.04868        0.97653
C         -1.84645       -0.74423       -1.53450
H         -0.76126       -0.69228       -1.65576
H         -2.21513       -1.76910       -1.57584
H         -2.35315       -0.12435       -2.27548
N          0.69002        2.61612        0.00668
H         -0.21335        2.09908        0.07240
H          0.93270        2.69492       -0.97920
H          0.61713        3.53312        0.43812
