35
1sa1msa1ma1eda_174.log	Energy: -1035885.3355671
S          0.88720       -0.35733       -0.95829
O         -0.55434       -0.53338       -1.31853
O          1.80312       -1.33226       -1.52831
O          1.26962        1.06203       -1.23088
O          0.87674       -0.52484        0.62184
H         -0.08256        1.93434       -1.00474
H          1.83925       -0.68041        0.99034
S         -3.38763       -0.29963        0.38444
O         -3.30977        0.80692       -0.58728
O         -3.13747        0.04581        1.77474
O         -2.48536       -1.48261       -0.08884
H         -1.61816       -1.15010       -0.56621
C         -4.99155       -1.04672        0.24213
H         -5.16052       -1.30432       -0.80267
H         -5.00865       -1.93371        0.87533
H         -5.71935       -0.31240        0.58814
N         -0.98434        2.34898       -0.62538
H         -1.17634        3.24365       -1.06913
C         -0.87236        2.47118        0.85021
H         -1.83446        2.76639        1.26680
H         -0.58838        1.49546        1.24497
H         -0.10012        3.20175        1.08969
H         -1.76087        1.69755       -0.84763
H          5.19352       -1.63226        0.97816
H          3.86009       -1.91916       -0.16951
H          5.30808       -0.11054       -0.97755
H          3.68631        0.48864       -0.62716
H          6.06766        0.94510        1.01162
H          4.98266        2.02866        0.44532
H          3.19562       -1.73663        2.23095
H          3.58727       -0.14034        2.13017
C          4.27396       -1.20777        0.54906
C          4.59750        0.09819       -0.16607
N          3.26940       -0.94863        1.59479
N          5.08498        1.08636        0.80213
