33
1sa1msa1ma1dma_27.log	Energy: -1001163.7881547
S         -1.67873        1.25657       -0.31274
O         -1.00662        0.29959       -1.41464
O         -1.60815        2.63651       -0.76631
O         -3.04056        0.67152       -0.20924
O         -0.91095        1.00715        0.94725
H         -2.78014       -0.86220        0.15175
H          0.46551        1.78245        1.17211
S          2.08134       -0.92790       -0.09829
O          1.07244       -1.94878        0.23458
O          2.68497       -0.25225        1.08605
O          1.59052        0.08062       -1.09074
H         -0.01372        0.25895       -1.30845
C          3.42820       -1.77441       -0.90732
H          3.03291       -2.26689       -1.79592
H          4.18408       -1.03773       -1.17886
H          3.83402       -2.50582       -0.20800
N          1.44851        2.17251        1.25866
H          1.52947        2.66640        2.14366
C          1.75114        3.04498        0.09875
H          2.73135        3.50401        0.23098
H          1.75148        2.41212       -0.78808
H          0.97471        3.80386        0.00778
H          2.06067        1.32025        1.27099
N         -2.63555       -1.88530        0.42598
C         -1.85624       -1.94762        1.69156
C         -1.99744       -2.62324       -0.69546
H         -3.57443       -2.24927        0.58422
H         -0.84544       -1.59650        1.48169
H         -2.33321       -1.29699        2.42390
H         -1.82975       -2.98036        2.04438
H         -0.96881       -2.27331       -0.78331
H         -2.01122       -3.69212       -0.47391
H         -2.54710       -2.40928       -1.61160
