30
1sa1msa2ma_15.log	Energy: -976505.4942584
S          2.67196        0.19511       -0.10584
O          2.42071        1.49448       -0.76480
O          4.05856       -0.09033        0.20505
O          1.68752       -0.06702        0.97710
O          2.18265       -0.94839       -1.19636
H          2.75302       -0.89218       -1.97428
S         -2.52962       -0.11450       -0.22145
O         -2.13279       -1.39124       -0.87772
O         -2.30176        1.08468       -1.06941
O         -1.89815        0.02198        1.12001
C         -4.29222       -0.21354        0.02394
H         -4.76234       -0.32297       -0.95348
H         -4.50409       -1.07946        0.65129
H         -4.62233        0.70514        0.50889
N         -0.03590       -2.14929        0.71014
H         -0.73966       -1.92985       -0.03445
H          0.62914       -1.34241        0.77470
C          0.68715       -3.41369        0.46601
H          1.39004       -3.59359        1.27935
H         -0.02588       -4.23485        0.39303
H          1.23770       -3.30753       -0.46743
H         -0.56694       -2.14904        1.58015
N         -0.09182        2.15269        0.16065
H          0.82545        2.04448       -0.32301
H         -0.87552        1.90258       -0.48106
C         -0.26510        3.49168        0.75493
H         -1.22438        3.53042        1.27062
H          0.54507        3.68083        1.45883
H         -0.24322        4.23922       -0.03734
H         -0.11225        1.41589        0.87504
