32
1sa1msa1a1eda_229.log	Energy: -1011228.3542637
S         -0.41875        1.09090       -0.24908
O         -0.66056        1.44216        1.15166
O          0.08121       -0.31691       -0.39723
O         -1.56320        1.34710       -1.14711
O          0.72982        2.02872       -0.82944
H          1.58307        1.80182       -0.38561
S          3.37227       -0.36990        0.19391
O          4.59800       -0.81751        0.81267
O          3.02240        1.05397        0.25893
O          2.18609       -1.22019        0.80673
H          1.31203       -0.86595        0.44967
C          3.34806       -0.84152       -1.52385
H          4.12339       -0.26523       -2.02982
H          3.55489       -1.90966       -1.58747
H          2.36135       -0.60523       -1.92638
N         -2.86614       -0.05804        2.46214
H         -2.65098       -1.04171        2.31475
H         -3.22339        0.07429        3.40158
H         -1.99054        0.46065        2.35953
H         -5.01023       -1.26523       -0.07827
H         -4.86295       -0.41353       -1.63526
H         -3.51452       -2.43724       -1.67894
H         -2.47714       -1.01529       -1.77905
H         -2.35120       -3.03265        0.14487
H         -1.41900       -1.68232        0.01953
H         -4.63577        1.19942        0.03610
H         -3.58323        0.28824        1.00581
C         -4.32604       -0.71842       -0.73254
C         -3.12571       -1.58746       -1.10683
N         -3.89122        0.50748       -0.00924
N         -2.37718       -2.02399        0.07007
H         -3.05831        0.94125       -0.47948
