30
1sa1msa1a1dma_53.log	Energy: -976497.8362144
S         -2.68764       -0.36556       -0.04761
O         -2.35038       -1.22470        1.10843
O         -2.92873        1.04543        0.34573
O         -1.77155       -0.51651       -1.17728
O         -4.10819       -0.90125       -0.61634
H         -4.77362       -0.79670        0.07736
S          2.72669       -0.21008       -0.04380
O          2.89260        1.24143        0.13903
O          1.91923       -0.59401       -1.22829
O          2.19624       -0.89569        1.18801
C          4.36341       -0.88114       -0.29244
H          4.78699       -0.41440       -1.18211
H          4.96346       -0.64659        0.58705
H          4.28111       -1.95975       -0.42776
N          0.10102       -2.26140        0.26285
H          0.09515       -1.81931       -0.66404
H          0.21734       -3.26572        0.16948
H          0.92685       -1.82239        0.76743
H         -0.80260       -2.03084        0.72193
N         -0.60899        2.41447        0.14844
C          0.07445        1.85732        1.34819
C          0.10208        2.16441       -1.13846
H         -1.56702        1.98109        0.11701
H          1.09301        2.23904        1.40185
H         -0.51346        2.11472        2.22919
H          0.12404        0.77456        1.24412
H          1.11333        2.56382       -1.06862
H          0.15843        1.08867       -1.30176
H         -0.46925        2.63405       -1.93933
H         -0.73606        3.41752        0.27377
