29
1sa1msa1tma_03.log	Energy: -965660.0585225
S         -1.04619       -1.82411       -0.10537
O          0.29135       -2.44480       -0.36471
O         -2.16069       -2.73720       -0.08116
O         -0.94188       -1.22208        1.40026
O         -1.20891       -0.62211       -0.97141
H         -0.04117       -0.84252        1.50651
H         -1.37539        0.79256       -0.32215
S          2.14325        0.35541       -0.00973
O          1.49797        0.04469        1.27915
O          1.67894        1.57605       -0.66475
O          2.07542       -0.86682       -0.95501
H          1.28040       -1.56117       -0.72042
C          3.89124        0.49727        0.26465
H          4.05151        1.35962        0.91212
H          4.23823       -0.41940        0.74044
H          4.37329        0.64418       -0.70175
N         -1.72744        1.75483       -0.03812
C         -1.07588        2.16403        1.22949
H         -1.27802        1.40326        1.98338
H         -0.00232        2.23436        1.06121
H         -1.48320        3.12870        1.54238
C         -1.38463        2.66394       -1.15933
H         -0.30008        2.66963       -1.27084
H         -1.84332        2.27692       -2.06963
H         -1.76251        3.66566       -0.94119
C         -3.19069        1.58240        0.12523
H         -3.60477        1.20392       -0.80932
H         -3.36693        0.85038        0.91403
H         -3.64443        2.54165        0.38449
