41
1sa1msa1tma1eda_178.log	Energy: -1085204.1196743
S         -0.08123       -1.73493       -0.75931
O          0.27611       -0.87344        0.40910
O         -0.81560       -0.93723       -1.77638
O          1.04424       -2.50011       -1.27594
O         -1.11531       -2.81417       -0.19137
H         -1.88299       -2.31845        0.17311
S         -3.01521        0.42817        0.49747
O         -2.35050        1.17337        1.55293
O         -3.08444       -1.03293        0.61801
O         -2.42600        0.81247       -0.91002
H         -1.76512        0.10447       -1.26545
C         -4.67119        1.04729        0.32069
H         -5.18306        0.85923        1.26484
H         -4.61346        2.11716        0.12142
H         -5.15427        0.51793       -0.49969
H          1.30373        4.25057       -0.91063
H          1.80217        3.23439       -2.26918
H         -0.24510        2.36952       -1.20285
H          1.07396        1.21165       -1.11549
H          0.13669        2.88076        1.08886
H          0.12801        1.26927        0.97309
H          3.69557        3.72619       -0.90090
H          2.95645        3.09347        0.41576
C          1.71205        3.26124       -1.17828
C          0.73318        2.18056       -0.73877
N          3.03450        3.02040       -0.59450
N          0.66756        2.09520        0.72241
N          2.89767       -0.77930        0.79570
C          3.17011        0.14935        1.91871
H          2.70405        1.10808        1.67867
H          2.71409       -0.25427        2.82364
H          4.24982        0.24752        2.05323
C          3.21281       -2.19059        1.12486
H          2.63413       -2.48338        2.00167
H          2.91882       -2.81032        0.27691
H          4.28218       -2.28328        1.32854
C          3.56518       -0.34878       -0.46134
H          3.16589       -0.95452       -1.27640
H          3.36802        0.71510       -0.62811
H          4.64100       -0.51272       -0.35684
H          1.85352       -0.75247        0.62400
