36
1sa1msa2dma_226.log	Energy: -1025798.4052904
S         -1.30479        0.51257        0.59467
O         -0.21338        0.45360        1.57972
O         -2.39389        1.43680        0.88705
O         -0.68509        1.05656       -0.78071
O         -1.81774       -0.86767        0.27535
H          0.12148        0.52777       -0.99043
H         -3.25592       -0.72448       -0.24907
S          2.02717       -1.52922       -0.14979
O          3.35507       -2.04249       -0.39008
O          1.45487       -0.58714       -1.12503
O          2.02550       -0.85565        1.27851
H          1.18540       -0.32344        1.42242
C          0.87368       -2.87091        0.02700
H          0.84718       -3.39408       -0.92980
H          1.23917       -3.52739        0.81650
H         -0.10541       -2.44935        0.26738
N         -4.25155       -0.51691       -0.61478
C         -4.14279        0.54370       -1.65021
C         -5.10600       -0.14016        0.53941
H         -4.59927       -1.37591       -1.03868
H         -3.74340        1.43612       -1.16832
H         -3.44592        0.21023       -2.41895
H         -5.12617        0.73850       -2.08107
H         -4.64650        0.72709        1.01386
H         -6.11432        0.08930        0.19062
H         -5.12776       -0.97085        1.24485
N          3.29128        2.07259       -0.82001
C          2.32959        2.70290        0.06899
C          4.48295        1.62586       -0.11653
H          2.85398        1.27717       -1.27299
H          2.75618        3.63094        0.46701
H          1.42210        2.96093       -0.48333
H          2.03906        2.07396        0.92897
H          5.03344        2.49797        0.25522
H          4.26689        0.96962        0.74480
H          5.13615        1.08214       -0.80397
