35
1sa1msa1ma1eda_91.log	Energy: -1035888.8255175
S         -0.36654        1.95588        0.19909
O         -0.70429        0.92797       -0.86156
O          0.25263        3.14841       -0.35458
O         -1.57600        2.17720        1.03262
O          0.67543        1.24192        1.15109
H         -2.76993        1.23516        0.51366
H          1.65235        1.37592        0.73470
S         -0.68978       -2.30801        0.14678
O         -0.40615       -3.68979       -0.17624
O         -2.09909       -1.87742        0.14819
O          0.12909       -1.39574       -0.82904
H         -0.20013       -0.39344       -0.83029
C         -0.02222       -1.92351        1.75198
H         -0.64874       -2.42597        2.48979
H          0.99535       -2.31341        1.79181
H         -0.02643       -0.83902        1.88584
N         -3.44211        0.53346        0.08243
H         -2.92891       -0.37095        0.06890
C         -3.81467        0.94776       -1.29097
H         -4.46270        0.19400       -1.73810
H         -4.32389        1.91036       -1.24893
H         -2.88989        1.04320       -1.85850
H         -4.25514        0.43235        0.68568
H          4.90842        0.68923       -0.15106
H          4.11863        0.46288        1.42161
H          4.06643       -1.64341        0.11831
H          2.43615       -1.01717        0.39697
H          3.81619       -1.08631       -2.14465
H          2.22156       -1.29361       -1.78216
H          3.32959        2.48289        0.23844
H          2.74515        1.50571       -0.94823
C          3.94511        0.49791        0.34134
C          3.37077       -0.83318       -0.14062
N          2.96889        1.55336        0.04730
N          3.05465       -0.75947       -1.56289
