35
1sa1msa1ma1eda_146.log	Energy: -1035886.8191878
S         -0.71165        1.29783       -0.66352
O         -0.34791       -0.07994       -1.14755
O         -0.75657        1.33517        0.80796
O          0.18567        2.33255       -1.23456
O         -2.12601        1.60410       -1.24897
H         -2.82492        0.86170       -0.96617
S          2.43739       -1.50537        0.02880
O          3.14268       -2.60824        0.64450
O          2.85981       -0.14243        0.39612
O          0.90680       -1.68284        0.30749
H          0.34879       -0.98355       -0.21822
C          2.54683       -1.61389       -1.74588
H          3.58689       -1.43398       -2.01925
H          2.23655       -2.61626       -2.04089
H          1.88483       -0.85712       -2.17170
N          2.13327        2.49489        0.58927
H          1.38114        2.56511       -0.15657
H          2.35923        1.48142        0.63974
C          1.65304        3.02029        1.88978
H          2.40987        2.84685        2.65482
H          1.45296        4.08694        1.78971
H          0.72929        2.49400        2.12711
H          2.96780        2.97777        0.26407
H         -3.96869       -2.34621       -0.53183
H         -2.43750       -1.68156       -1.15091
H         -2.13230       -2.52786        1.13955
H         -1.90406       -0.77737        1.08801
H         -4.22239       -2.15952        2.19726
H         -3.33178       -0.94236        2.83243
H         -4.50991       -0.25732       -1.42449
H         -4.39400        0.00780        0.19448
C         -3.23447       -1.53643       -0.41683
C         -2.64978       -1.57088        0.99146
N         -3.85933       -0.22054       -0.64540
N         -3.71007       -1.31428        1.97001
