38
1sa1msa1dma1eda_251.log	Energy: -1060546.2754889
S          0.34179       -1.99943        0.18703
O          1.62794       -1.67278        0.81742
O         -0.81774       -2.04488        1.07782
O          0.08547       -1.17786       -1.03358
O          0.59958       -3.50619       -0.35214
H         -0.23739       -3.85846       -0.68448
S         -2.75081        0.84284       -0.33092
O         -3.74094        1.73507       -0.89535
O         -1.57031        1.40687        0.32593
O         -2.27363       -0.12315       -1.49607
H         -1.39038       -0.54971       -1.28761
C         -3.53724       -0.27009        0.81156
H         -3.89552        0.33003        1.64915
H         -4.37291       -0.74454        0.29709
H         -2.79532       -1.00356        1.13306
N          1.56179        0.88145        1.83657
C          0.39930        1.01501        2.73831
C          2.81099        1.45620        2.36366
H          1.69424       -0.12249        1.60450
H          0.19713        2.07421        2.90626
H         -0.46391        0.56038        2.25407
H          0.61249        0.51696        3.68621
H          2.66918        2.52414        2.54061
H          3.08407        0.96309        3.29851
H          3.60455        1.31141        1.62909
H          1.34383        1.32033        0.86076
H          2.05491        2.45097       -2.48476
H          2.83551        2.91209       -0.95673
H          4.17071        1.23461       -2.02605
H          3.44121        0.49762       -0.59218
H          3.34955       -0.79535       -2.75434
H          1.88176       -0.60633       -2.06833
H          0.41292        2.52249       -0.72205
H          0.62925        0.96087       -1.07650
C          2.30491        2.10407       -1.47470
C          3.22156        0.89178       -1.60111
N          1.10372        1.77788       -0.69161
N          2.65425       -0.10389       -2.49960
