41
1sa1msa1tma1eda_203.log	Energy: -1085201.4255377
S          0.11428       -1.34970        0.41401
O         -0.93295       -2.14823        1.02665
O          1.28408       -2.11100       -0.07913
O         -0.37235       -0.37969       -0.61003
O          0.66438       -0.41880        1.62627
H         -0.97898        0.95179        0.01021
H          1.50316        0.00261        1.32477
S          3.85605        0.14149       -0.28160
O          4.95318       -0.35818        0.52112
O          2.75672        0.82894        0.42262
O          3.25203       -0.97112       -1.20937
H          2.44788       -1.44245       -0.77766
C          4.49033        1.24900       -1.51662
H          4.95918        2.08069       -0.99011
H          5.22754        0.70543       -2.10743
H          3.66379        1.58989       -2.13883
H         -5.81662       -1.14724       -1.33446
H         -4.77235       -0.39953       -2.55049
H         -3.61933       -2.23607       -1.38282
H         -2.79539       -0.70356       -1.12104
H         -4.54420       -2.01140        0.82525
H         -2.94132       -1.71282        0.93617
H         -5.88477        1.26648       -1.19030
H         -5.14810        0.67004        0.14706
C         -4.91597       -0.52510       -1.47217
C         -3.71205       -1.25623       -0.89137
N         -5.04903        0.79792       -0.85687
N         -3.81891       -1.34817        0.56656
N         -1.36066        1.84607        0.43665
C         -0.19217        2.67045        0.82643
H          0.39918        2.11890        1.55520
H          0.41729        2.85993       -0.05729
H         -0.54593        3.61155        1.25413
C         -2.18554        2.51113       -0.60222
H         -1.57049        2.66033       -1.49095
H         -3.05498        1.88612       -0.83518
H         -2.52373        3.47722       -0.21787
C         -2.17089        1.43510        1.61321
H         -2.94003        0.73016        1.28423
H         -1.50967        0.93697        2.32320
H         -2.62002        2.32417        2.06281
