41
1sa1msa1tma1eda_27.log	Energy: -1085219.2019899
S          2.73097        0.93971        0.37537
O          2.14668        2.03555        1.16864
O          3.34436       -0.13436        1.15900
O          1.81050        0.44659       -0.68093
O          3.91890        1.61527       -0.51333
H          4.53265        2.05102        0.09337
S         -2.73068       -0.95654        0.22659
O         -2.42327       -2.00820       -0.75938
O         -3.32315        0.27723       -0.33656
O         -1.54758       -0.64562        1.10397
C         -3.95549       -1.63857        1.33571
H         -3.54117       -2.53632        1.79499
H         -4.18954       -0.89085        2.09367
H         -4.84196       -1.88214        0.74927
H         -2.53861        2.20413        0.88060
H         -1.38540        3.47950        1.35527
H         -2.89465        4.00355       -0.66091
H         -1.16180        4.22207       -0.95764
H         -2.61644        1.77047       -1.70273
H         -1.97025        2.89887       -2.74109
H         -0.82532        0.85344        0.77420
H         -0.44708        1.64320       -0.62939
C         -1.65774        2.76936        0.57330
C         -1.93695        3.47328       -0.75850
N         -0.55658        1.78910        0.38733
N         -1.89482        2.48076       -1.82326
H          0.35930        2.07424        0.76965
N          1.50519       -2.24103       -0.52685
C          1.04503       -2.55413        0.85312
H          1.76963       -2.13438        1.55207
H          0.06681       -2.09150        1.00436
H          0.98322       -3.63937        0.96314
C          0.56007       -2.74455       -1.55672
H         -0.44866       -2.38714       -1.33155
H          0.88598       -2.37964       -2.53183
H          0.57773       -3.83698       -1.54227
C          2.89353       -2.70765       -0.76228
H          3.18952       -2.43112       -1.77498
H          3.54600       -2.21408       -0.04137
H          2.92868       -3.79301       -0.64434
H          1.53785       -1.19460       -0.60338
