36
1sa1msa2dma_03.log	Energy: -1025832.3285088
S          2.70180       -0.00014       -0.12618
O          2.88374       -1.24514       -0.87112
O          2.88778        1.24535       -0.86930
O          1.43337        0.00098        0.67248
O          3.80757       -0.00258        1.07567
H          4.68459        0.00017        0.66873
S         -2.75946        0.00013        0.11159
O         -2.53826        1.24510        0.89986
O         -2.53639       -1.24249        0.90312
O         -1.98864       -0.00105       -1.15447
C         -4.49191       -0.00168       -0.31214
H         -4.70112        0.89493       -0.89575
H         -4.69972       -0.90005       -0.89355
H         -5.06623       -0.00101        0.61448
N         -0.08876        2.22996        0.13399
C         -0.08085        2.57932       -1.30475
C          0.50662        3.25492        1.01393
H         -1.06068        1.99107        0.43888
H          0.95507        2.65375       -1.63758
H         -0.60070        1.78322       -1.83784
H         -0.60452        3.52709       -1.44274
H          1.55269        3.39006        0.73501
H         -0.03979        4.19271        0.90202
H          0.44214        2.90877        2.04552
H          0.45467        1.35192        0.27085
N         -0.08872       -2.22897        0.13376
C         -0.08272       -2.58300       -1.30380
C          0.50835       -3.25066        1.01636
H          0.45432       -1.35030        0.26727
H         -0.60623       -3.53139       -1.43801
H         -0.60357       -1.78881       -1.83874
H          0.95273       -2.65814       -1.63789
H         -0.03806       -4.18895        0.90864
H          1.55400       -3.38649        0.73625
H          0.44544       -2.90072        2.04675
H         -1.06026       -1.98947        0.43944
