36
1sa1msa2dma_231.log	Energy: -1025796.1986283
S         -1.27196        0.09626       -0.29250
O         -0.02367        0.74962        0.15846
O         -2.26700        0.99403       -0.87116
O         -0.87527       -0.89181       -1.48128
O         -1.85517       -0.75947        0.79105
H         -0.05750       -1.39132       -1.23747
H         -3.37401       -0.65984        0.76855
S          2.54367       -1.49951        0.00992
O          3.54949       -0.93423       -0.86561
O          1.36798       -2.13268       -0.60746
O          2.05251       -0.44767        1.08003
H          1.22108        0.03410        0.75697
C          3.30072       -2.68589        1.09193
H          3.69344       -3.48268        0.45963
H          4.10871       -2.18785        1.62772
H          2.54375       -3.06479        1.77721
N         -4.44479       -0.52416        0.67428
C         -4.82438       -0.87738       -0.71731
C         -4.76779        0.87720        1.04270
H         -4.88894       -1.16714        1.32808
H         -4.26478       -0.22113       -1.38428
H         -4.54073       -1.91305       -0.90460
H         -5.89950       -0.74610       -0.85083
H         -4.18844        1.52734        0.38657
H         -5.83851        1.05135        0.92297
H         -4.46926        1.04432        2.07765
N          1.71957        3.31326       -0.07958
C          2.36883        3.21348        1.21576
C          2.59853        2.91794       -1.16849
H          0.89993        2.71491       -0.08637
H          3.17094        3.95842        1.28255
H          1.64562        3.43067        2.00739
H          2.81482        2.22187        1.41271
H          3.42137        3.63801       -1.25335
H          3.04031        1.91412       -1.04138
H          2.04441        2.93264       -2.11108
