40
1sa1msa2eda_272.log	Energy: -1095272.5578431
S         -0.48442        0.51479        0.86577
O         -1.71709        0.74294        1.64694
O          0.74815        0.44074        1.64671
O         -0.62965       -0.95411        0.21980
O         -0.36555        1.45668       -0.28579
H         -1.52704       -1.03462       -0.18610
H          1.17913        1.89502       -0.34147
S         -4.37674       -0.36584       -0.30978
O         -5.31077       -1.28910        0.30035
O         -3.11141       -0.90403       -0.83144
O         -4.06887        0.84273        0.65083
H         -3.12714        0.80883        1.03803
C         -5.19129        0.48714       -1.63900
H         -5.48096       -0.26551       -2.37268
H         -6.07119        0.98464       -1.23139
H         -4.49310        1.20566       -2.06694
H          2.85731        0.49040       -1.33034
H          2.83833        2.04816       -2.19841
H          5.18274        1.33198       -1.63316
H          4.76302        2.85810       -0.85050
H          4.91553        0.22772        0.39822
H          5.56347        1.65378        0.92404
H          2.47014        1.66713        0.70208
H          2.32687        3.11441       -0.08192
C          3.08893        1.55980       -1.25428
C          4.54579        1.78235       -0.85808
N          2.20951        2.10815       -0.19089
N          4.75549        1.23805        0.47663
H          4.07808       -3.56082       -0.14519
H          4.58552       -2.67561        1.29927
H          2.13830       -2.66151        1.06574
H          2.78097       -1.02641        0.97703
H          2.05913       -2.62115       -1.37485
H          1.20268       -1.39826       -0.75016
H          5.90155       -2.05938       -0.64550
H          4.54801       -1.50344       -1.38387
C          4.14389       -2.55601        0.30479
C          2.74121       -1.98271        0.44670
N          4.98894       -1.64883       -0.47916
N          2.15427       -1.73916       -0.87626
