38
1sa1msa1dma1eda_333.log	Energy: -1060538.4663908
S         -0.02999       -0.70300        0.84734
O          1.20649       -0.81649        1.64760
O         -1.26075       -0.55913        1.61287
O          0.08543        0.68871        0.03317
O         -0.10804       -1.76751       -0.19519
H          0.98088        0.75135       -0.38134
H         -1.51927       -1.96787       -0.82930
S          3.81649        0.31747       -0.26891
O          4.47387        1.38207        0.46189
O          2.58006        0.64654       -0.99706
O          3.55584       -0.93912        0.64388
H          2.62194       -0.92038        1.05194
C          4.96023       -0.39060       -1.42814
H          5.23394        0.40025       -2.12697
H          5.83441       -0.73312       -0.87464
H          4.46894       -1.21611       -1.94161
N         -2.60381        2.18308       -0.16720
C         -2.90760        2.45692        1.23362
C         -2.66247        3.37771       -0.99811
H         -1.66953        1.78218       -0.21612
H         -3.97385        2.68695        1.34469
H         -2.67184        1.57287        1.83050
H         -2.33278        3.30605        1.63677
H         -3.68595        3.76973       -1.00808
H         -1.99801        4.18294       -0.64490
H         -2.38652        3.12878       -2.02681
H         -4.32833       -2.98573       -0.74571
H         -3.13378       -2.91487        0.58099
H         -5.01617       -1.10255        0.64018
H         -3.34355       -0.53925        0.79472
H         -5.10116       -0.06236       -1.43687
H         -3.74930        0.77369       -0.89236
H         -2.35428       -2.95203       -1.92155
H         -2.79907       -1.32111       -1.79820
C         -3.54451       -2.38363       -0.27841
C         -4.06596       -0.98726        0.10852
N         -2.46955       -2.16928       -1.28377
N         -4.15550       -0.15526       -1.08796
