30
1sa1msa1a1dma_18.log	Energy: -976504.2519904
S          2.13778       -0.53626       -0.26639
O          1.47053       -1.77654       -0.72366
O          1.88968        0.61138       -1.16659
O          1.93118       -0.24658        1.15565
O          3.73363       -0.82822       -0.36111
H          3.95471       -1.00972       -1.28474
S         -2.38140       -0.43780       -0.09531
O         -3.58671        0.37776       -0.19731
O         -2.58014       -1.83899        0.38225
O         -1.28818        0.19223        0.73380
C         -1.68298       -0.59183       -1.73608
H         -2.38893       -1.15389       -2.34833
H         -1.54256        0.40726       -2.15168
H         -0.72367       -1.10861       -1.66441
N         -0.17023       -2.33178        1.43104
H          0.03832       -1.40770        1.82223
H          0.46187       -2.41176        0.60884
H          0.00089       -3.06714        2.10922
H         -1.17576       -2.30110        1.09415
N          0.18302        2.30032        0.19279
C          0.82614        2.79779        1.42667
C         -0.56033        3.32086       -0.56934
H          0.89823        1.83602       -0.40397
H          0.05689        3.17041        2.10495
H          1.36222        1.96377        1.88001
H          1.52384        3.59894        1.17576
H         -1.36172        3.71968        0.05412
H          0.11619        4.12267       -0.87009
H         -0.99489        2.85483       -1.45383
H         -0.47425        1.50238        0.43656
