35
1sa1msa1ma1eda_109.log	Energy: -1035889.1028830
S          2.66151       -0.05211       -0.21296
O          2.32077        0.13054       -1.62154
O          2.88561        1.19042        0.54251
O          1.73962       -0.94835        0.54362
O          4.04633       -0.90015       -0.17238
H          4.64393       -0.52114       -0.83101
S         -1.45062       -1.83216        0.07100
O         -1.89008       -1.17733       -1.15730
O         -1.46420       -0.99596        1.28038
O         -0.06056       -2.51481       -0.11195
H          0.73562       -1.86936        0.08148
C         -2.45900       -3.26428        0.35491
H         -3.48400       -2.91374        0.47826
H         -2.37557       -3.91667       -0.51404
H         -2.10369       -3.76074        1.25707
N          0.20977        1.40643        1.50823
H         -0.06404        1.50470        0.46864
H         -0.20052        0.51218        1.79501
C         -0.25813        2.54791        2.31788
H         -0.06157        2.36169        3.37437
H          0.28112        3.44136        2.00134
H         -1.32439        2.68120        2.13198
H          1.23609        1.31427        1.50770
H         -3.06683        1.27046       -1.71463
H         -3.45039        2.95100       -1.31971
H         -1.38532        2.78244       -2.61210
H         -1.09676        3.49428       -1.01316
H         -0.67203        0.63111       -1.53146
H          0.53221        1.71863       -1.63425
H         -3.77954        1.86463        0.65294
H         -2.48470        0.89502        0.51356
C         -2.75892        2.13081       -1.10154
C         -1.36375        2.56771       -1.53446
N         -2.81741        1.84017        0.33352
N         -0.36878        1.54474       -1.19434
