32
1sa1msa1a1eda_190.log	Energy: -1011229.1365547
S         -2.31590       -0.77223       -0.33008
O         -2.42126       -1.29693        1.02990
O         -2.76673        0.61077       -0.54020
O         -0.97010       -0.99696       -0.94224
O         -3.34888       -1.63379       -1.23926
H         -3.32255       -2.54768       -0.92558
S          2.30338       -0.82817        0.17848
O          2.76468       -0.59156        1.53566
O          1.96186        0.34161       -0.64417
O          1.11514       -1.84579        0.17070
H          0.23778       -1.47448       -0.23106
C          3.55477       -1.75693       -0.67914
H          4.46219       -1.15225       -0.68739
H          3.71910       -2.68615       -0.13367
H          3.20484       -1.95575       -1.69176
N          1.44522        2.83733       -2.36553
H          2.04036        3.65875       -2.36646
H          1.14649        2.67388       -3.32174
H          2.00763        2.03805       -2.07609
H          0.62999        3.06333        1.17242
H         -1.03890        3.61264        0.89166
H         -0.80989        2.27782        3.03058
H         -1.93847        1.54722        1.88204
H          0.72034        0.51639        2.51819
H         -0.69828       -0.28282        2.18459
H          0.10074        2.54159       -1.08929
H          0.17120        1.15639       -0.19111
C         -0.39393        2.73491        0.97300
C         -0.88224        1.77028        2.05913
N         -0.37802        2.02150       -0.32381
N         -0.13199        0.53050        1.97114
H         -1.32801        1.70577       -0.59348
