33
1sa1msa1a1tma_08.log	Energy: -1001163.1706477
S         -2.47717       -0.93937        0.04574
O         -1.45859       -0.33893       -0.86109
O         -2.14468       -2.35080        0.33427
O         -2.80792       -0.09624        1.18581
O         -3.86200       -0.98852       -0.80593
H         -3.78065       -1.67647       -1.47976
S          2.83025       -0.19875       -0.07034
O          2.66341        1.24755       -0.30221
O          2.49522       -1.05459       -1.23656
O          2.11078       -0.66343        1.16368
C          4.56741       -0.45360        0.25837
H          5.12613       -0.12669       -0.61900
H          4.84031        0.14006        1.13114
H          4.73449       -1.51437        0.44632
N          0.59380       -2.59381        0.06503
H         -0.44572       -2.55413        0.14372
H          1.06131       -1.93954        0.74287
H          0.93246       -3.54190        0.19809
H          0.92978       -2.22537       -0.83655
N         -0.80531        2.16772       -0.03676
C          0.08456        2.86003       -1.00475
H          1.04022        2.33309       -1.03687
H         -0.39709        2.85107       -1.98337
H          0.23129        3.88961       -0.66983
C         -2.13979        2.81094        0.05300
H         -2.58182        2.84430       -0.94353
H         -2.76752        2.20931        0.71057
H         -2.01783        3.82361        0.44362
C         -0.17526        2.02688        1.30495
H         -0.84464        1.43335        1.92846
H          0.78503        1.52336        1.18990
H         -0.03280        3.02326        1.72983
H         -0.97277        1.19432       -0.39301
