41
1sa1msa1tma1eda_184.log	Energy: -1085204.5854871
S          0.41059       -1.95594       -0.34256
O          1.82977       -2.30583       -0.54432
O         -0.55660       -3.03120       -0.49325
O          0.26258       -1.51081        1.20510
O          0.04183       -0.73354       -1.12973
H          0.92151       -0.79950        1.38188
H         -1.59034       -0.62764       -1.16453
S          3.16636        0.77865        0.35937
O          4.27334        1.59573        0.80042
O          2.06249        0.52673        1.29762
O          3.75176       -0.59892       -0.13793
H          3.02250       -1.28154       -0.28809
C          2.45571        1.47547       -1.11611
H          2.03634        2.44498       -0.84214
H          3.25145        1.59254       -1.85168
H          1.67486        0.79487       -1.46457
H         -4.44788       -1.34371       -0.66641
H         -3.04267       -2.43789       -0.81814
H         -3.58773       -2.31300        1.51053
H         -2.08283       -1.43501        1.27025
H         -4.71580       -0.22041        1.70374
H         -3.33631        0.01200        2.53787
H         -2.93176       -0.31672       -2.10406
H         -2.66592        0.55495       -0.68110
C         -3.38696       -1.47635       -0.43309
C         -3.15689       -1.40478        1.06770
N         -2.62561       -0.41011       -1.13814
N         -3.70651       -0.16171        1.60996
N         -2.05875        2.17087       -0.29672
C         -3.10061        3.06902        0.18684
H         -3.85496        3.21704       -0.59211
H         -3.58320        2.61486        1.05521
H         -2.69529        4.05455        0.47094
C         -1.04921        1.92650        0.73459
H         -1.53142        1.50035        1.61656
H         -0.30970        1.21204        0.36670
H         -0.53166        2.85473        1.02677
C         -1.43112        2.67831       -1.51302
H         -0.69322        1.95325       -1.87034
H         -2.18772        2.82484       -2.29068
H         -0.92036        3.64134       -1.34596
