28
1sa1msa1eda_34.log	Energy: -975731.0880355
S         -2.35847       -0.73163        0.08409
O         -1.09391       -0.58352        0.86030
O         -3.56434       -0.92388        0.86729
O         -2.43902        0.32943       -0.94689
O         -2.08973       -2.12613       -0.71516
H         -1.02560        1.22249       -0.98226
H         -2.94854       -2.52476       -0.90844
S          2.04261       -1.22884       -0.11702
O          2.02606        0.23622        0.05658
O          1.81722       -1.71989       -1.46321
O          1.06922       -1.88788        0.92358
H          0.14270       -1.45300        0.89244
C          3.58491       -1.84936        0.50359
H          4.36495       -1.47601       -0.16038
H          3.72564       -1.48501        1.52039
H          3.54425       -2.93807        0.47476
H         -1.33403        2.97155        0.51552
H         -0.35233        1.74088        1.33165
H          0.62380        4.04706        1.65146
H          1.72144        2.98596        0.76141
H          0.09292        5.11959       -0.41054
H          1.69057        4.82503       -0.60120
H          0.03762        2.48526       -1.46667
H          0.63938        1.14091       -0.66071
C         -0.35202        2.49185        0.54158
C          0.76489        3.51443        0.70232
N         -0.16795        1.78355       -0.74919
N          0.78802        4.38347       -0.47584
