35
1sa1msa1ma1eda_158.log	Energy: -1035886.4668600
S         -1.09849       -2.03686        0.07533
O         -0.99200       -3.40141       -0.39575
O         -0.93845       -1.78247        1.51092
O         -0.30750       -1.04765       -0.73788
O         -2.64515       -1.54440       -0.18702
H         -2.88187       -1.74378       -1.10381
S          2.69148        0.25217       -0.22325
O          2.87231       -0.21572        1.14349
O          1.83383        1.43674       -0.38101
O          2.18599       -0.89904       -1.16481
H          1.18807       -1.06899       -1.01253
C          4.26796        0.56230       -0.97298
H          4.74144        1.35919       -0.39901
H          4.85358       -0.35512       -0.91798
H          4.10621        0.86726       -2.00614
N         -0.19171        0.91119        1.64179
H         -0.28100       -0.12205        1.69223
H          0.45002        1.13129        0.86609
C          0.30922        1.47595        2.90869
H          0.36659        2.56146        2.82347
H         -0.37080        1.20406        3.71611
H          1.30107        1.06888        3.10541
H         -1.15924        1.25062        1.36473
H         -3.88308        2.49455       -0.82775
H         -2.80951        3.49589        0.17485
H         -1.95197        3.23302       -2.10101
H         -0.82869        2.55002       -0.92510
H         -1.54680        1.23293       -3.05162
H         -1.38414        0.41208       -1.65634
H         -3.49548        1.55902        1.38315
H         -2.92006        0.55438        0.24226
C         -2.90411        2.52854       -0.33146
C         -1.81629        2.40858       -1.39333
N         -2.77009        1.46682        0.67820
N         -1.92322        1.14339       -2.11559
