38
1sa1msa1dma1eda_287.log	Energy: -1060545.0708151
S         -0.71276       -0.90579       -0.74505
O         -0.52289        0.41335       -1.40616
O         -0.70074       -0.79131        0.72912
O         -2.12347       -1.42073       -1.20574
O          0.24473       -1.93714       -1.22367
H         -2.80828       -0.62852       -1.15406
H          1.30371       -2.34153       -0.17442
S          2.24532        1.85141       -0.01895
O          3.26620        2.87815        0.00217
O          2.62029        0.48164        0.34379
O          1.60503        1.85647       -1.46115
H          0.82079        1.21923       -1.50312
C          0.88519        2.32296        1.03068
H          1.27590        2.39226        2.04674
H          0.51387        3.29050        0.69345
H          0.11576        1.55196        0.95799
N          2.04987       -2.75003        0.48037
C          1.89157       -2.17421        1.84045
C          3.38488       -2.52277       -0.12702
H          1.85372       -3.74974        0.51116
H          2.08414       -1.10471        1.76686
H          0.86234       -2.33082        2.16082
H          2.59921       -2.65491        2.51907
H          3.52913       -1.44609       -0.21816
H          4.15509       -2.96046        0.51086
H          3.40050       -2.98619       -1.11364
H         -5.28488        1.38090        0.26879
H         -5.44418       -0.32628       -0.20513
H         -4.75167       -0.03346        2.18604
H         -3.59140       -0.97012        1.23849
H         -3.05378        1.38279        2.62435
H         -2.04229        0.53159        1.63131
H         -4.16062        0.90923       -1.84312
H         -3.07994        1.34100       -0.68562
C         -4.73121        0.44842        0.09509
C         -4.01324        0.03213        1.37918
N         -3.73376        0.61118       -0.97176
N         -2.94963        0.98469        1.70115
