40
1sa1msa2eda_197.log	Energy: -1095280.8189236
S         -0.70819       -1.19927        0.97743
O          0.72860       -1.36925        1.35571
O         -1.57006       -2.34752        1.19901
O         -1.22454        0.05978        1.60831
O         -0.62187       -0.90438       -0.57859
H         -0.01108        1.14639        1.72881
H         -1.56107       -0.94564       -1.02589
S          3.22189       -0.24481       -0.59004
O          3.16223        0.62891        0.59759
O          2.66802        0.29873       -1.81821
O          2.62519       -1.64384       -0.23940
H          1.79188       -1.57533        0.38295
C          4.91889       -0.68998       -0.86222
H          5.44651        0.22069       -1.14662
H          5.32209       -1.10631        0.06013
H          4.94907       -1.42099       -1.66996
H          0.50807        1.57634       -0.95990
H          0.21551        3.28456       -1.28453
H          1.73950        3.25588        0.52872
H          0.14689        3.67713        1.22548
H          1.63305        1.12890        1.34751
H          1.10071        2.05366        2.61356
H         -1.87894        2.26706       -1.25621
H         -1.61110        1.50353        0.15027
C          0.03201        2.48446       -0.56098
C          0.72803        2.89662        0.72968
N         -1.40980        2.36057       -0.36129
N          0.86221        1.74495        1.67359
H         -5.01579       -1.39284       -1.37927
H         -3.86204       -2.04549       -0.18986
H         -5.12182       -0.10240        0.70595
H         -3.38294        0.16969        0.67749
H         -5.33738        1.37162       -1.13697
H         -4.13387        2.08684       -0.28845
H         -2.92240       -1.71435       -2.45276
H         -3.10743       -0.09143       -2.22798
C         -4.08592       -1.18731       -0.82917
C         -4.26304        0.05502        0.03906
N         -2.95742       -0.98050       -1.75190
N         -4.38740        1.25005       -0.80244
