38
1sa1msa1dma1eda_235.log	Energy: -1060548.1203918
S         -0.18363       -1.34435       -0.62723
O          1.10940       -2.06410       -0.72167
O         -1.36093       -2.20051       -0.60056
O         -0.18153       -0.64914        0.84934
O         -0.26187       -0.21305       -1.58212
H          0.70194       -0.23358        0.98140
H         -1.28330        1.01980       -1.01918
S          3.50218        0.16301        0.39622
O          4.38225       -0.37692        1.41195
O          2.18438        0.66302        0.83467
O          3.30820       -0.83537       -0.79380
H          2.40217       -1.33277       -0.77596
C          4.33059        1.49228       -0.44328
H          5.25199        1.09658       -0.87039
H          3.67105        1.87542       -1.22109
H          4.55106        2.25629        0.30269
N         -1.72328        1.80675       -0.48778
C         -2.68386        2.53123       -1.33865
C         -0.64081        2.65141        0.05313
H         -2.23657        1.34292        0.31677
H         -2.16790        2.93304       -2.21265
H         -3.45315        1.81964       -1.63529
H         -3.12798        3.34944       -0.76726
H         -0.11236        3.13403       -0.77079
H         -1.06756        3.41030        0.71263
H          0.05921        2.02363        0.60326
H         -5.23185        0.01565        0.75377
H         -4.93475       -1.71951        0.60162
H         -3.85699       -1.06930        2.58803
H         -2.58525       -1.36316        1.39569
H         -3.48138        1.24231        2.36607
H         -1.98773        0.57836        2.40378
H         -3.11304       -1.12556       -0.93563
H         -4.54831       -0.56297       -1.48076
C         -4.45151       -0.73155        0.55412
C         -3.40566       -0.69152        1.66092
N         -3.85350       -0.44681       -0.75012
N         -2.83433        0.65557        1.84641
