32
1sa1msa1a1eda_77.log	Energy: -1011238.2772279
S         -2.98073       -0.26147       -0.13788
O         -2.72218        0.87569       -1.00823
O         -3.13550       -1.58457       -0.75524
O         -1.98817       -0.32880        0.99607
O         -4.40536        0.08667        0.55745
H         -4.76462       -0.72806        0.93279
S          2.51202       -1.09062        0.06772
O          2.17466       -2.31581        0.82192
O          2.91229        0.07240        0.87208
O          1.38064       -0.72874       -0.87920
C          3.89055       -1.50050       -0.98816
H          4.72506       -1.78220       -0.34539
H          3.60229       -2.33247       -1.63064
H          4.14269       -0.62214       -1.58250
N         -0.51783       -2.45517        0.05969
H          0.14812       -3.01842        0.59328
H         -1.21689       -2.98791       -0.45488
H         -1.03199       -1.78266        0.66764
H          0.07356       -1.87061       -0.57191
H          0.08077        2.93031        1.61924
H          1.35427        1.67404        1.69384
H          2.29398        3.82318        0.85289
H          2.39517        2.52667       -0.33782
H          0.49418        4.75983       -0.40608
H          1.45625        4.19296       -1.60282
H         -0.78041        0.93581        0.62088
H         -0.46490        2.03489       -0.59509
C          0.77525        2.32098        1.03428
C          1.69754        3.18649        0.18649
N         -0.02849        1.46118        0.13414
N          0.90534        3.92011       -0.79877
H          0.56759        0.74084       -0.33067
