36
1sa1msa2dma_169.log	Energy: -1025807.2836835
S         -1.91717       -1.54458        0.04765
O         -2.66954       -2.72799        0.42000
O         -2.40536       -0.25388        0.57151
O         -0.44495       -1.66091        0.25078
O         -2.09999       -1.38689       -1.57305
H         -2.40656       -2.23927       -1.90936
S          2.61478       -0.33628       -0.10379
O          2.95523       -1.05542        1.11180
O          2.04644        1.00931        0.06180
O          1.68532       -1.19426       -1.04097
H          0.79393       -1.40687       -0.58998
C          4.03489       -0.21640       -1.16072
H          4.76841        0.39307       -0.63219
H          4.41854       -1.22175       -1.33143
H          3.73522        0.25794       -2.09465
N         -0.34362        1.21152        1.61427
C         -0.74686        2.54563        2.09915
C          0.19096        0.32508        2.67461
H         -1.15939        0.73866        1.15970
H          0.11177        3.03261        2.56439
H         -1.08839        3.12273        1.24220
H         -1.54955        2.43168        2.82906
H          1.09856        0.76685        3.08695
H         -0.56783        0.21200        3.45026
H          0.41557       -0.64457        2.23334
H          0.36330        1.31289        0.86842
N         -0.87101        2.46667       -1.17348
C         -2.32369        2.57869       -1.28107
C         -0.32261        1.54739       -2.16770
H         -0.45541        3.38170       -1.31931
H         -2.77393        1.61572       -1.02429
H         -2.69482        3.32594       -0.57159
H         -2.66421        2.86408       -2.29033
H         -0.73338        0.54868       -2.00164
H         -0.56599        1.83897       -3.20350
H          0.76160        1.49320       -2.05398
