32
1sa1msa1a1eda_293.log	Energy: -1011225.4796115
S          0.24526       -0.90611       -0.62626
O         -0.93533       -1.42301       -1.33867
O          1.53862       -1.36347       -1.16659
O          0.29077        0.67888       -0.87916
O          0.15294       -1.09754        0.84589
H         -0.59029        1.05623       -0.63559
H          1.78786       -1.69623        1.53141
S         -3.32695        0.54973        0.22414
O         -4.64454        1.13762        0.28929
O         -2.18397        1.41689       -0.09432
O         -3.38436       -0.63345       -0.82373
H         -2.46162       -0.94982       -1.05950
C         -2.95804       -0.27810        1.75497
H         -2.94263        0.48656        2.53256
H         -3.74816       -1.00489        1.94320
H         -1.97918       -0.75481        1.65894
N          2.75653       -1.91353        1.23547
H          3.41139       -1.07230        1.43291
H          2.64792       -1.99197        0.20836
H          3.09231       -2.77832        1.64734
H          2.14685        0.79259        0.95305
H          3.01302        2.10460        1.73648
H          2.40833        2.51564       -0.68456
H          4.14424        2.68780       -0.35088
H          2.89673        0.32387       -1.56940
H          4.02319        1.31887       -2.22781
H          4.72699        0.24785        0.44747
H          4.81046        0.77024        2.01204
C          3.10025        1.33272        0.96713
C          3.31872        1.96805       -0.40754
N          4.18936        0.38907        1.30756
N          3.69427        0.92200       -1.35604
