41
1sa1msa1tma1eda_187.log	Energy: -1085203.0922028
S         -1.41254       -1.92889       -0.66253
O         -1.81826       -2.59818        0.56037
O         -2.33589       -0.86650       -1.15943
O         -0.00963       -1.45590       -0.67507
O         -1.50423       -3.09111       -1.79498
H         -1.43911       -2.67053       -2.66263
S         -1.31533        2.09555        0.23640
O         -0.36507        3.19432        0.15200
O         -1.04275        1.02355        1.19340
O         -1.49069        1.50048       -1.20123
H         -1.81445        0.51794       -1.18073
C         -2.92517        2.75864        0.60021
H         -2.87583        3.21767        1.58806
H         -3.16623        3.50144       -0.15988
H         -3.64164        1.93668        0.58881
H          3.64535        0.63295       -2.73320
H          2.58753       -0.74731       -2.38987
H          1.34533        1.38064       -2.36472
H          1.26815        0.54377       -0.82896
H          2.98994        2.84944       -1.39421
H          1.74869        2.75927       -0.34177
H          4.67242       -0.80569       -1.11235
H          4.21494        0.56949       -0.34610
C          3.04963        0.13994       -1.94569
C          1.94587        1.08690       -1.49193
N          3.86775       -0.27160       -0.80133
N          2.50703        2.22247       -0.75676
N          1.13189       -0.96035        1.76652
C          1.81909        0.31000        2.11411
H          2.47328        0.59793        1.29061
H          1.06253        1.07774        2.26604
H          2.39944        0.14925        3.02578
C          0.14670       -1.36417        2.80295
H         -0.55898       -0.54664        2.94224
H         -0.39246       -2.24076        2.44298
H          0.68364       -1.57916        3.72967
C          2.10489       -2.04533        1.47242
H          1.54911       -2.91843        1.13112
H          2.77801       -1.68740        0.68716
H          2.65751       -2.27466        2.38690
H          0.59811       -0.83290        0.88127
