38
1sa1msa1dma1eda_324.log	Energy: -1060540.4272575
S         -0.01992       -0.24293       -0.77599
O         -1.16776       -0.66172       -1.60609
O          1.20610        0.04266       -1.52069
O         -0.40702        1.19121       -0.13861
O          0.19249       -1.14880        0.38455
H         -1.31792        1.13256        0.23808
H          1.54473       -0.66160        1.22727
S         -4.02862        0.07384        0.18242
O         -4.94967        0.87906       -0.59347
O         -2.89708        0.75517        0.83126
O         -3.48800       -1.14659       -0.65182
H         -2.55795       -0.97229       -1.03260
C         -4.93091       -0.79682        1.44065
H         -5.37882       -0.04357        2.08937
H         -5.70316       -1.39152        0.95292
H         -4.23599       -1.42785        1.99319
N          2.93159        1.87974       -0.00264
C          4.33100        2.06188       -0.38067
C          2.29778        3.11525        0.45946
H          2.40046        1.50982       -0.79452
H          4.91296        2.35756        0.49866
H          4.73831        1.12125       -0.76157
H          4.46108        2.83441       -1.15144
H          2.76851        3.44336        1.39253
H          2.38897        3.92732       -0.27498
H          1.23780        2.92381        0.63654
H          4.51767       -0.76032        1.52355
H          3.46332       -2.07157        2.08460
H          2.54616       -2.31987       -0.22368
H          3.51841       -0.97519       -0.77539
H          4.56710       -3.55973        0.12103
H          4.83481       -2.78056       -1.28542
H          2.36600       -0.04428        2.56292
H          2.66200        0.62985        1.00548
C          3.56082       -1.26113        1.35622
C          3.50527       -1.80879       -0.06768
N          2.46443       -0.28404        1.57945
N          4.68196       -2.64092       -0.29371
