40
1sa1msa2eda_77.log	Energy: -1095293.3424690
S          0.92749       -2.24147       -0.24470
O         -0.39609       -2.63170       -0.76960
O          1.80254       -1.62444       -1.26521
O          0.87296       -1.48613        1.01206
O          1.66413       -3.62909        0.18320
H          1.64100       -4.22611       -0.57672
S         -0.97477        2.45454       -0.22616
O          0.19592        2.76644       -1.09081
O         -0.59039        1.92370        1.10099
O         -1.97345        1.57573       -0.90243
C         -1.79314        4.01806        0.03423
H         -2.07655        4.42086       -0.93817
H         -2.67488        3.84395        0.65124
H         -1.09592        4.68633        0.53979
H          2.70629        2.21690        0.93327
H          1.73380        0.76125        1.23276
H          4.08642        0.44208        2.05082
H          3.68014       -0.68277        0.75359
H          5.39924        1.67216        0.50853
H          5.64640        0.15230       -0.04325
H          1.50385        1.70568       -1.00957
H          3.14885        1.31288       -1.27076
C          2.59209        1.15681        0.69140
C          3.86284        0.37170        0.97891
N          2.29584        1.06624       -0.76146
N          4.93912        0.86000        0.11174
H          2.05320        0.08480       -1.01775
H         -3.18533       -1.57910        2.00398
H         -3.36711        0.18427        1.76997
H         -5.25688       -1.03263        0.76065
H         -4.31798       -0.19062       -0.47782
H         -4.97351       -2.67978       -0.79368
H         -3.42381       -2.31014       -1.13940
H         -1.12194       -0.48995        1.24694
H         -1.61409       -1.58674        0.13265
C         -3.21108       -0.77336        1.26800
C         -4.29862       -1.03003        0.23347
N         -1.89003       -0.70634        0.60349
N         -4.11058       -2.33492       -0.39232
H         -1.89254        0.07527       -0.09517
