24
1sa1msa2a_37.log	Energy: -927172.8852642
S         -1.64499        0.10608        0.62659
O         -1.62390        1.37747       -0.11943
O         -0.94701        0.09491        1.89146
O         -3.11449       -0.34632        0.83700
O         -1.12444       -1.02464       -0.33189
H         -3.58048       -0.47891       -0.08760
H         -0.15873       -0.79010       -0.64508
S          2.43026       -0.39454       -0.24610
O          3.54175       -0.96956       -0.98632
O          1.14790       -0.30464       -1.04429
O          2.70239        0.96115        0.34194
H          1.63301        1.94752       -0.05188
C          2.06505       -1.45336        1.14175
H          1.83666       -2.44756        0.75587
H          2.95553       -1.48595        1.77015
H          1.21670       -1.03963        1.68966
N         -4.10406       -0.71731       -1.54000
H         -5.02117       -1.14563       -1.61347
H         -3.42531       -1.33318       -1.98008
H         -4.11548        0.15477       -2.06041
N          0.85266        2.60945       -0.42515
H         -0.07890        2.16887       -0.26928
H          0.99242        2.71600       -1.42704
H          0.89334        3.51747        0.02932
