38
1sa1msa1dma1eda_49.log	Energy: -1060564.0800849
S          0.82861       -1.85976       -0.68159
O          0.73947       -3.30244       -0.74867
O         -0.36316       -1.34461       -1.65125
O          0.48000       -1.27513        0.66096
O          2.08214       -1.23879       -1.17181
H          2.11431        0.37216       -0.51408
S         -1.61297        1.80692       -0.35327
O         -1.00517        1.95563        0.98471
O         -2.78317        0.89414       -0.38485
O         -0.58145        1.43241       -1.38034
H         -0.41119       -0.35913       -1.65583
C         -2.23186        3.40070       -0.85595
H         -2.98360        3.71259       -0.13072
H         -1.40013        4.10520       -0.87294
H         -2.67143        3.29582       -1.84771
N         -2.18650       -1.38490        1.00266
C         -2.65766       -2.69245        0.50034
C         -2.59265       -1.04989        2.38142
H         -1.13563       -1.36090        0.93825
H         -3.74885       -2.70698        0.49187
H         -2.26611       -2.83004       -0.50779
H         -2.27465       -3.48292        1.14713
H         -3.68184       -1.04678        2.45012
H         -2.17806       -1.78756        3.07044
H         -2.20548       -0.05689        2.61340
H         -2.50231       -0.61244        0.37589
H          3.37100        0.71121        2.20753
H          4.63105        1.84663        1.75732
H          2.42104        2.79417        1.21582
H          3.34094        2.51189       -0.27906
H          1.21209        0.73848        0.79305
H          1.06927        1.65966       -0.53652
H          3.91595       -0.62971        0.30436
H          5.03896        0.46638       -0.20744
C          3.87416        1.16899        1.34796
C          2.86263        2.02585        0.57583
N          4.53328        0.12049        0.59917
N          1.77001        1.18094        0.05205
