35
1sa1msa1ma1eda_19.log	Energy: -1035902.3308077
S         -2.52014       -0.85631       -0.05977
O         -3.09933        0.38555       -0.56736
O         -2.22147       -1.88542       -1.05798
O         -1.36791       -0.63327        0.87002
O         -3.61736       -1.49598        0.96621
H         -4.45101       -1.58641        0.48518
S          2.87608        0.01159        0.08399
O          2.96989       -1.27631        0.82311
O          2.60551        1.17768        0.96930
O          1.91018       -0.06547       -1.04327
C          4.49007        0.29767       -0.61665
H          5.21012        0.34802        0.20022
H          4.72383       -0.53102       -1.28513
H          4.46228        1.23968       -1.16445
N          0.60107       -2.36378       -0.05029
H          1.50490       -2.19735        0.44008
H         -0.13158       -1.79512        0.42359
C          0.20993       -3.78299       -0.16109
H         -0.74253       -3.83551       -0.68709
H          0.98246       -4.32958       -0.70211
H          0.10204       -4.19758        0.84101
H          0.72804       -1.90743       -0.95840
H          0.69620        3.04031       -0.79223
H         -0.12489        1.57886       -1.35550
H         -1.53930        3.65723       -1.70203
H         -2.30891        2.47048       -0.64040
H         -1.06184        4.98274        0.20742
H         -2.50326        4.34142        0.64409
H          0.95453        1.58330        0.93536
H         -0.39407        2.53239        1.38351
C         -0.17172        2.39441       -0.63389
C         -1.47819        3.17632       -0.71771
N         -0.04461        1.82110        0.73038
N         -1.54578        4.11398        0.40649
H         -0.61348        0.95532        0.82909
