27
1sa1msa1a1ma_62.log	Energy: -951832.3237943
S          1.95882       -0.89692       -0.08314
O          2.34528       -0.50386        1.27769
O          0.95488       -1.99536       -0.13771
O          1.59546        0.22306       -0.95919
O          3.31847       -1.55986       -0.66030
H          3.11138       -1.98525       -1.50363
S         -2.20676       -0.42016       -0.04240
O         -2.33176        0.71081       -0.94619
O         -1.62785       -0.14838        1.28378
O         -1.45969       -1.61613       -0.71503
H         -0.45840       -1.70492       -0.46571
C         -3.80761       -1.15179        0.19264
H         -4.45103       -0.38507        0.62504
H         -4.18354       -1.46355       -0.78169
H         -3.70384       -2.00206        0.86571
N          0.54912        1.49425        1.94168
H          0.73151        2.21913        1.15662
H          1.30558        0.78086        1.88548
H          0.52150        1.92421        2.86088
H         -0.33749        0.99586        1.74879
N          1.05266        3.02594       -0.26822
H          1.72881        3.78306       -0.26355
C         -0.16947        3.41987       -0.98528
H          0.02233        3.73238       -2.01816
H         -0.85829        2.57242       -1.00722
H         -0.65433        4.24558       -0.45695
H          1.48468        2.22855       -0.73965
