33
1sa1msa1ma1dma_85.log	Energy: -1001153.6559162
S         -0.87020       -0.74135       -0.60703
O          0.09766       -1.59760       -1.27837
O         -0.30736       -0.08756        0.62743
O         -1.45406        0.34150       -1.46401
O         -2.06981       -1.64380       -0.15538
H         -0.31655        1.52004       -1.46500
H         -2.88622       -1.03102        0.08156
S          3.16693       -0.17179        0.43413
O          4.41643        0.03509        1.13202
O          2.73057        0.88162       -0.50407
O          2.04476       -0.40261        1.50844
H          1.09630       -0.33532        1.12505
C          3.21704       -1.69975       -0.46875
H          3.98057       -1.59153       -1.24000
H          3.48735       -2.48743        0.23453
H          2.22898       -1.87055       -0.90326
N          0.47219        2.19457       -1.24706
H          1.31254        1.61915       -1.01475
C          0.11444        3.02731       -0.07515
H          0.96337        3.65155        0.20291
H         -0.74963        3.64558       -0.31919
H         -0.13132        2.34294        0.73625
H          0.68511        2.75462       -2.06922
N         -3.98789        0.01726        0.35626
C         -3.63541        0.73904        1.58028
C         -5.35077       -0.51095        0.35822
H         -3.84824        0.62524       -0.44755
H         -3.69193        0.04902        2.42654
H         -2.60316        1.08780        1.50251
H         -4.30411        1.58893        1.77483
H         -5.44317       -1.25614        1.15310
H         -6.10551        0.27047        0.52377
H         -5.54941       -1.00295       -0.59619
