28
1sa1msa1eda_13.log	Energy: -975733.6330759
S         -2.19255        1.08541        0.10729
O         -1.64132        2.14250       -0.76666
O         -1.10556        0.48976        0.92819
O         -3.42379        1.41203        0.79737
O         -2.55854       -0.17154       -0.89707
H         -3.48565       -0.07502       -1.15287
S          0.67337       -2.29929        0.04332
O          1.52435       -3.39420        0.44955
O          1.31179       -1.11688       -0.55912
O         -0.16963       -1.85463        1.29674
H         -0.61644       -0.95635        1.15722
C         -0.55859       -2.88044       -1.09845
H         -0.03954       -3.18238       -2.00881
H         -1.06050       -3.73197       -0.63897
H         -1.25941       -2.06567       -1.29091
H          1.47877        3.11866        0.71276
H          1.07442        1.52659        1.38531
H          3.55469        1.98148        1.55204
H          3.20571        0.59454        0.51243
H          4.01457        3.25349       -0.39688
H          4.57303        1.78794       -0.86034
H          0.06180        1.96831       -0.81890
H          1.66531        1.98436       -1.44186
C          1.62932        2.04166        0.60093
C          3.11015        1.68146        0.59506
N          1.04723        1.63646       -0.70252
N          3.74260        2.29283       -0.57596
H          1.02770        0.60082       -0.74774
