35
1sa1msa1ma1eda_81.log	Energy: -1035893.0869092
S         -0.81439       -1.96148       -0.23933
O         -2.07947       -2.43887        0.36397
O          0.16154       -3.00362       -0.59232
O         -1.06054       -0.97519       -1.30994
O         -0.03377       -1.15624        0.93329
H         -2.40196        0.60971        0.34925
H         -0.32397       -0.20659        0.94452
S         -0.03767        2.15749       -0.21821
O          0.15570        3.52601        0.24097
O         -0.93530        1.34709        0.69498
O          1.22619        1.41061       -0.48957
H          1.70527       -0.23282       -0.63372
C         -0.89957        2.21082       -1.78168
H         -1.84297        2.73908       -1.63195
H         -0.27488        2.76284       -2.48451
H         -1.05565        1.18251       -2.11113
N         -3.27666        0.02717        0.29239
H         -3.64304        0.12072       -0.65310
C         -4.25022        0.42600        1.33066
H         -5.13921       -0.20066        1.26267
H         -3.78070        0.29307        2.30446
H         -4.51581        1.47452        1.19800
H         -2.96623       -0.97537        0.38925
H          4.58857        0.08601       -0.43888
H          5.01661       -0.64082        1.10802
H          3.74593       -2.30651        0.02809
H          2.61263       -1.57783        1.19391
H          2.72137       -1.00814       -1.69663
H          1.55773       -1.89700       -0.87445
H          4.24017        1.51661        1.58807
H          2.81202        1.29055        0.80592
C          4.17509       -0.23776        0.53560
C          3.21091       -1.39372        0.30030
N          3.55807        0.81969        1.31483
N          2.24501       -1.11490       -0.80256
