26
1sa1msa1dma_12.log	Energy: -940999.2007856
S          1.96652       -0.82835       -0.01195
O          2.06943       -0.17565        1.28438
O          1.02199       -1.97637       -0.08228
O          1.75290        0.11773       -1.13529
O          3.41517       -1.50730       -0.24981
H          3.34212       -2.12413       -0.99088
S         -2.14167       -0.45695        0.00935
O         -2.13099        0.10123       -1.33653
O         -1.58133        0.41160        1.05895
O         -1.48331       -1.87000        0.06415
H         -0.44871       -1.86207       -0.00108
C         -3.79912       -0.89514        0.46417
H         -4.17943       -1.59695       -0.27766
H         -3.77819       -1.34254        1.45715
H         -4.38236        0.02600        0.46130
N          0.36133        2.14629        0.00506
C         -0.42110        2.96101       -0.94900
C          1.23141        2.91480        0.92157
H         -0.29588        1.55686        0.54952
H          0.26426        3.51868       -1.58861
H         -1.03667        2.28775       -1.54666
H         -1.05638        3.65231       -0.39264
H          1.92389        3.51546        0.33007
H          0.61391        3.56395        1.54457
H          1.78376        2.20205        1.53410
H          0.94481        1.44955       -0.52208
