26
1sa1msa1dma_06.log	Energy: -940999.2158961
S         -2.21767       -0.81911       -0.15409
O         -3.08784       -1.83091       -0.71742
O         -0.76104       -1.05203       -0.38228
O         -2.55690        0.59043       -0.43764
O         -2.38108       -0.91458        1.47355
H         -2.75757       -1.78059        1.67873
S          2.43668       -0.44969        0.03449
O          3.68926       -0.39235        0.75170
O          1.99613        0.75055       -0.69613
O          1.31079       -0.85737        1.06654
H          0.41857       -0.95715        0.58872
C          2.43954       -1.80002       -1.12178
H          3.17549       -1.56404       -1.89099
H          2.71882       -2.70482       -0.58223
H          1.43860       -1.88588       -1.54825
N         -0.35446        2.10440       -0.16367
C         -0.36618        3.37025       -0.92424
C         -0.25724        2.27640        1.30385
H         -1.22524        1.54791       -0.36585
H          0.56546        3.90817       -0.74327
H         -0.45982        3.14192       -1.98568
H         -1.21659        3.97356       -0.60363
H          0.67333        2.79197        1.54476
H         -1.11630        2.85041        1.65271
H         -0.26174        1.29112        1.76988
H          0.45278        1.52751       -0.46921
