28
1sa1msa1eda_146.log	Energy: -975722.9983278
S         -2.63252       -0.14603        0.12987
O         -3.86074       -0.34188        0.88055
O         -2.59698        1.11441       -0.66525
O         -1.35808       -0.36217        0.83579
O         -2.58981       -1.35600       -0.99069
H         -3.49045       -1.47761       -1.31837
S          1.86183       -1.43295       -0.00073
O          1.54147       -0.58255       -1.13976
O          2.23544       -0.81556        1.26141
O          3.11675       -2.34731       -0.47480
H          3.78418       -2.32683        0.22602
C          0.59014       -2.64032        0.21784
H         -0.30405       -2.08150        0.51723
H          0.43722       -3.13929       -0.73893
H          0.91399       -3.33696        0.99078
H         -0.29887        2.99457        0.94876
H          0.25397        1.34520        1.28562
H          2.11888        3.01471        1.59865
H          2.47819        1.86441        0.31169
H          1.64546        4.64598       -0.07329
H          2.90356        3.84899       -0.74806
H         -1.06346        1.60819       -0.79056
H          0.27256        2.53435       -1.38686
C          0.38670        2.20509        0.62900
C          1.82640        2.69801        0.58951
N         -0.02076        1.79744       -0.73903
N          1.94850        3.74495       -0.42783
H          0.46175        0.92448       -0.99683
