42
1sa1msa2tma_03.log	Energy: -1075145.1086744
S         -0.55295       -1.58787       -0.94626
O         -2.01959       -1.47518       -1.18263
O          0.17478       -0.61748       -1.96744
O         -0.23665       -1.05611        0.42083
O          0.01311       -2.90677       -1.20336
H          1.42301       -1.09062        0.64665
S          0.95216        2.31165       -0.14320
O          2.24217        1.59025       -0.23762
O          0.38859        2.35766        1.21936
O         -0.03618        1.83543       -1.16793
H          0.08270        0.34799       -1.67542
C          1.29621        4.00363       -0.60962
H          2.00737        4.41232        0.10892
H          1.71970        4.00363       -1.61416
H          0.36127        4.56407       -0.58496
N         -3.18634        0.05902        0.61189
C         -3.08817       -0.71407        1.87151
H         -3.54875       -1.69153        1.72185
H         -2.02962       -0.84219        2.09668
H         -3.59867       -0.17186        2.67126
C         -2.55873        1.39907        0.74279
H         -1.54527        1.29432        1.13147
H         -2.48874        1.85458       -0.24495
H         -3.16952        2.01051        1.41237
C         -4.57425        0.13923        0.10758
H         -4.57037        0.68133       -0.83833
H         -4.95232       -0.87046       -0.05681
H         -5.19809        0.66317        0.83571
H         -2.64279       -0.49602       -0.11728
N          2.40845       -1.43843        0.78016
C          3.08336       -1.36785       -0.54556
H          2.52817       -1.99546       -1.24304
H          3.05726       -0.32995       -0.87673
H          4.10886       -1.72798       -0.43101
C          3.07060       -0.57426        1.78829
H          3.07922        0.44478        1.39986
H          2.49487       -0.61330        2.71393
H          4.08351       -0.94685        1.96034
C          2.26582       -2.84147        1.24018
H          1.73918       -2.84535        2.19510
H          1.67932       -3.38552        0.49789
H          3.25861       -3.28226        1.35700
