39
1sa1msa1dma1tma_93.log	Energy: -1050469.7198702
S         -0.44105       -1.77927        0.35490
O         -0.63231       -0.58084       -0.51609
O          0.41583       -1.43435        1.52086
O         -1.68416       -2.45343        0.70146
O          0.38853       -2.81770       -0.53303
H          1.20931       -2.36014       -0.82479
S          2.79440        0.13264       -0.41158
O          2.18399        1.28817       -1.04808
O          2.58646       -1.18501       -1.02356
O          2.41342        0.07042        1.11392
H          1.59904       -0.53706        1.28508
C          4.54328        0.40950       -0.27426
H          4.93143        0.49978       -1.28922
H          4.69927        1.33482        0.27982
H          4.98889       -0.44102        0.24003
N         -0.58064        2.29770        0.33932
C         -0.24200        2.09274        1.74283
C         -0.13353        3.59642       -0.14462
H         -0.11073        1.57333       -0.19991
H         -0.84460        2.75967        2.37208
H         -0.45436        1.05747        2.02469
H          0.82059        2.28479        1.96035
H         -0.67943        4.39310        0.37493
H          0.94467        3.76276        0.00678
H         -0.33914        3.68440       -1.21567
N         -3.13663        0.28486       -0.48924
C         -3.33459        1.52791       -1.27087
H         -2.66708        2.28302       -0.85068
H         -3.07190        1.33390       -2.31158
H         -4.38177        1.83263       -1.20075
C         -3.89045       -0.86758       -1.04106
H         -3.60765       -1.00296       -2.08546
H         -3.61481       -1.75740       -0.47333
H         -4.96147       -0.66615       -0.96440
C         -3.42550        0.49100        0.95224
H         -3.16279       -0.42389        1.48557
H         -2.80955        1.32141        1.29735
H         -4.48766        0.71531        1.07660
H         -2.11021        0.02261       -0.54051
