28
1sa1msa1eda_101.log	Energy: -975729.8773376
S          0.39891       -1.46584        0.05275
O          1.53978       -2.37373       -0.02457
O         -0.91352       -2.07977        0.30681
O          0.66461       -0.32036        0.98779
O          0.33558       -0.80023       -1.41314
H          2.26441       -0.21826        1.00885
H         -0.44512       -0.19658       -1.44112
S         -2.87808        0.74563       -0.11091
O         -4.13948        1.39561       -0.38103
O         -1.81100        0.83384       -1.11797
O         -3.18142       -0.77595        0.19168
H         -2.33356       -1.31290        0.22247
C         -2.21021        1.34212        1.42706
H         -2.02634        2.40964        1.29875
H         -2.95388        1.17023        2.20503
H         -1.27809        0.80765        1.62612
H          4.53801       -0.01058       -0.90883
H          2.83248       -0.38712       -1.27606
H          3.33722        2.05434       -1.66584
H          2.12139        1.80339       -0.41243
H          4.89855        2.60823        0.01884
H          3.53650        3.18880        0.70785
H          3.53376       -1.28131        0.87082
H          3.84968        0.30969        1.38990
C          3.49919        0.18291       -0.62784
C          3.18127        1.67207       -0.65024
N          3.30226       -0.29332        0.76867
N          3.98543        2.34478        0.37356
