35
1sa1msa1ma1eda_43.log	Energy: -1035899.4905994
S         -2.88386        0.21257        0.06508
O         -3.08059       -1.01719        0.86178
O         -2.55467        1.40238        0.85119
O         -1.96810       -0.00295       -1.08370
O         -4.30237        0.49901       -0.67336
H         -4.97020        0.65270        0.00880
S          2.36081       -0.99335       -0.13354
O          2.62596        0.22962       -0.93522
O          2.06812       -2.20138       -0.91950
O          1.27662       -0.73177        0.88489
C          3.84599       -1.30351        0.80177
H          3.67876       -2.17932        1.42869
H          4.65170       -1.48704        0.09053
H          4.06242       -0.42597        1.41120
N         -0.80284       -2.37349        0.08154
H         -1.69530       -2.09050        0.53396
H         -0.88450       -2.04479       -0.88319
C         -0.50648       -3.81878        0.16303
H          0.44761       -3.99734       -0.33180
H         -0.44046       -4.10191        1.21330
H         -1.30578       -4.38092       -0.31953
H         -0.03148       -1.80197        0.49701
H          0.07182        3.52298       -1.09612
H         -0.76839        3.16800        0.43128
H          1.25908        4.51814        0.87720
H          1.42110        2.92744        1.59713
H          2.90114        2.30463       -0.19869
H          2.73670        3.79633       -0.88933
H         -0.62679        1.16636       -0.87395
H          1.05796        1.29138       -0.97933
C          0.15000        3.00436       -0.13670
C          1.39088        3.45796        0.63797
N          0.22593        1.55180       -0.42367
N          2.67024        3.27858       -0.02089
H          0.34779        0.99399        0.43424
