38
1sa1msa1dma1eda_206.log	Energy: -1060549.7825766
S         -0.34935       -1.78903        0.44120
O         -0.60693       -0.81611        1.50515
O         -0.12742       -0.97810       -0.91612
O          0.88811       -2.58855        0.62472
O         -1.52013       -2.66123        0.14679
H          2.19323       -1.97096       -0.02794
H         -2.65807       -1.77891       -0.45796
S          0.95834        2.27758        0.04121
O          1.10345        3.65138       -0.43373
O          2.20437        1.48066        0.12445
O         -0.08885        1.51439       -0.75039
H         -0.06357        0.04518       -0.77548
C          0.30207        2.34311        1.70303
H          1.03486        2.85014        2.33190
H         -0.62881        2.91198        1.67737
H          0.12669        1.31942        2.03825
N          3.15066       -1.72934       -0.42590
C          3.94027       -1.03492        0.62429
C          3.00262       -0.95328       -1.68602
H          3.57550       -2.63304       -0.63086
H          3.44780       -0.08383        0.83198
H          3.95702       -1.66330        1.51516
H          4.95385       -0.86320        0.25759
H          2.58777        0.02220       -1.42724
H          3.98390       -0.83819       -2.15051
H          2.32077       -1.49189       -2.34314
H         -5.03169       -0.05515        0.05340
H         -3.93318       -0.83440        1.22581
H         -3.60222        1.71324        0.96680
H         -2.15020        0.73208        0.73327
H         -3.57522        2.18312       -1.32404
H         -1.96973        1.78261       -1.17996
H         -4.16819       -1.74877       -1.22728
H         -3.10102       -0.47566       -1.51324
C         -3.98869       -0.28982        0.28212
C         -3.12524        0.98086        0.30533
N         -3.45850       -1.15416       -0.80831
N         -2.92793        1.44995       -1.06178
