26
1sa1msa1dma_26.log	Energy: -940997.4650693
S          1.89361       -1.11585       -0.12213
O          2.42703       -2.27879       -0.80198
O          2.83859       -0.12337        0.38787
O          0.77307       -0.41619       -0.84469
O          1.07302       -1.69513        1.18782
H          1.53654       -2.48857        1.48786
S         -2.49687       -0.04213       -0.10262
O         -3.89135        0.05804       -0.46716
O         -1.75603        1.18434        0.21516
O         -1.75711       -0.80695       -1.27578
H         -0.76222       -0.77001       -1.15490
C         -2.30620       -1.15268        1.27428
H         -2.77639       -0.68216        2.13866
H         -2.81067       -2.08554        1.02266
H         -1.23928       -1.31521        1.44227
N          0.77010        2.16974       -0.07726
C          1.80499        2.85469       -0.88133
C          0.97584        2.26480        1.38829
H         -0.17556        2.48744       -0.30291
H          2.76421        2.38611       -0.65909
H          1.57328        2.72305       -1.93819
H          1.82670        3.91600       -0.62898
H          1.91807        1.77189        1.62670
H          0.99469        3.31575        1.68158
H          0.14741        1.75127        1.87444
H          0.75923        1.15303       -0.35047
