38
1sa1msa1dma1eda_294.log	Energy: -1060545.2403618
S          0.09930       -1.88093       -0.18095
O          0.21995       -1.27235       -1.50779
O          0.08721       -0.83033        0.89800
O         -1.04031       -2.79395       -0.00479
O          1.39599       -2.77426        0.07392
H          2.17768       -2.19836       -0.08669
S          3.02392        0.68320       -0.00835
O          2.68910        1.47828       -1.17620
O          3.29548       -0.74747       -0.19057
O          1.93820        0.86330        1.12065
H          1.18785        0.16065        1.02405
C          4.42643        1.41228        0.80297
H          5.25906        1.35278        0.10134
H          4.18984        2.45187        1.02850
H          4.63889        0.84761        1.70987
N         -2.98985       -0.79559        0.21661
C         -4.32826       -1.00344       -0.36409
C         -2.99932       -0.44821        1.65736
H         -2.40175       -1.64665        0.08868
H         -4.92905       -0.10761       -0.19737
H         -4.22404       -1.19025       -1.43349
H         -4.80726       -1.86023        0.11244
H         -3.44261        0.54283        1.76711
H         -3.56879       -1.20331        2.20284
H         -1.96418       -0.44563        1.99921
H         -2.50057       -0.02718       -0.33831
H         -2.18597        3.82078       -0.96991
H         -1.87309        3.81938        0.76631
H         -0.13917        2.58770       -0.52086
H         -0.93113        1.58621        0.69549
H         -1.73070        1.56100       -2.12727
H         -0.74329        0.46308       -1.44197
H         -4.12204        3.30220        0.51853
H         -3.85296        2.16830       -0.61643
C         -2.16011        3.17924       -0.07314
C         -1.08963        2.11090       -0.25113
N         -3.46813        2.58352        0.22657
N         -1.51169        1.11039       -1.24187
