41
1sa1msa1tma1eda_194.log	Energy: -1085202.3741312
S         -0.09090       -1.88455       -0.74435
O          0.10053       -1.08341       -1.94826
O         -0.15374       -0.98101        0.49202
O         -1.21421       -2.81263       -0.72444
O          1.21192       -2.77623       -0.51565
H          1.99920       -2.18490       -0.52813
S          3.04796        0.44321        0.34540
O          3.03947        1.58058       -0.55404
O          3.19946       -0.89801       -0.22892
O          1.78007        0.46023        1.28721
H          1.02418       -0.12916        0.92547
C          4.32448        0.67565        1.55902
H          5.27226        0.69101        1.01991
H          4.15235        1.62922        2.05772
H          4.29082       -0.15332        2.26481
H         -0.98490        4.28576       -1.10113
H         -0.60036        3.84936        0.56897
H          0.57789        2.37786       -1.00848
H         -0.54732        1.46697       -0.01181
H         -1.05863        2.25802       -2.77899
H         -0.84665        0.75375       -2.18904
H         -2.98771        4.16098        0.24740
H         -2.99838        2.93212       -0.83625
C         -1.12378        3.50882       -0.33049
C         -0.48951        2.21146       -0.81211
N         -2.53592        3.28769       -0.00295
N         -1.22226        1.67463       -1.96274
N         -2.77126       -0.58867        0.99701
C         -3.19142       -1.87293        1.61147
H         -2.88021       -2.68174        0.94964
H         -2.69514       -1.97850        2.57692
H         -4.27547       -1.86491        1.74597
C         -2.98916        0.56872        1.90063
H         -2.37547        0.43427        2.79276
H         -2.72101        1.49403        1.37722
H         -4.04546        0.59993        2.18017
C         -3.40413       -0.38024       -0.33445
H         -2.93642        0.48234       -0.81808
H         -3.22785       -1.27267       -0.93545
H         -4.47434       -0.21443       -0.19000
H         -1.73533       -0.67508        0.82672
