32
1sa1msa1a1eda_116.log	Energy: -1011231.6194779
S         -2.13279        0.57780        0.30822
O         -3.27391        0.72240        1.20468
O         -0.90379        0.00926        0.95247
O         -2.50726       -0.51755       -0.78976
O         -1.76507        1.81787       -0.41997
H         -3.51650       -0.57953       -0.86576
H         -0.14501        1.84587       -0.71419
S          1.67431       -1.80045        0.01619
O          2.55080       -1.27714        1.05644
O          1.56277       -0.97313       -1.19793
O          0.25799       -2.14703        0.56900
H         -0.31424       -1.28565        0.72754
C          2.21265       -3.42101       -0.46499
H          3.21335       -3.31249       -0.88381
H          2.23043       -4.05100        0.42406
H          1.51697       -3.80660       -1.20935
N         -5.18384       -0.55031       -0.68683
H         -5.70981        0.01126       -1.34747
H         -5.17990       -0.07153        0.21271
H         -5.65291       -1.44279       -0.57880
H          1.12079        2.96115        0.92067
H          1.21924        1.22310        1.24958
H          3.49383        2.28526        1.36515
H          3.39410        1.08781        0.07737
H          3.36843        3.99667       -0.28520
H          4.27335        2.87572       -1.05688
H          1.32855        2.36633       -1.44240
H          1.10450        0.75791       -1.03838
C          1.52562        2.01083        0.56168
C          3.03646        2.07279        0.39078
N          0.90315        1.73531       -0.75760
N          3.36209        3.05040       -0.65125
