33
1sa1msa1ma1dma_187.log	Energy: -1001139.9297615
S          1.36270       -0.83352        0.18416
O          0.38841       -0.32023        1.16762
O          2.45370       -1.64393        0.75807
O          0.59040       -1.84342       -0.76892
O          1.89885        0.26648       -0.67090
H         -0.30790       -1.48272       -0.99225
H          3.51978        0.01638       -0.89258
S         -2.86920       -0.76268       -0.07572
O         -3.93183       -1.73866       -0.16512
O         -1.81894       -0.75829       -1.11053
O         -2.17076       -0.93373        1.33799
H         -1.20097       -0.69502        1.30133
C         -3.54983        0.87135        0.00014
H         -4.04833        1.04927       -0.95394
H         -4.26993        0.88923        0.81853
H         -2.71953        1.57431        0.15959
N          4.42421       -0.44341       -0.58536
H          4.01388       -1.22628       -0.03206
C          5.21622        0.46302        0.27575
H          6.08533       -0.06386        0.66832
H          5.53058        1.33129       -0.30250
H          4.57510        0.78145        1.09712
H          4.94583       -0.79856       -1.38290
N         -0.71033        2.42324        0.13891
C         -0.32068        3.62912        0.84801
C         -0.51363        2.52424       -1.29901
H         -0.17580        1.63407        0.49210
H         -0.97455        4.45800        0.55294
H         -0.43491        3.47767        1.92482
H          0.72119        3.93702        0.64720
H         -1.18568        3.28944       -1.70632
H          0.51972        2.78959       -1.57821
H         -0.75816        1.56709       -1.76612
