39
1sa1msa1dma1tma_30.log	Energy: -1050485.4938016
S         -2.32074        0.21706       -0.48193
O         -2.00212       -0.81590       -1.47274
O         -1.93810       -0.11890        0.89708
O         -1.92392        1.58612       -0.88792
O         -3.95630        0.26715       -0.39024
H         -4.29273        0.44533       -1.27838
S          2.43011        0.12418       -0.28281
O          3.04791       -0.88758        0.59428
O          2.66036        1.53404        0.14774
O          0.98033       -0.12239       -0.52267
C          3.22737       -0.02664       -1.87496
H          3.06470       -1.03932       -2.24576
H          2.78472        0.70230       -2.55400
H          4.29225        0.16485       -1.74055
N          0.18037        2.60921        0.48935
C          0.05949        4.04457        0.17762
C         -0.11189        2.26910        1.89739
H         -0.49285        2.08388       -0.11546
H          0.76019        4.61275        0.79178
H          0.28694        4.19516       -0.87762
H         -0.96339        4.36779        0.37677
H          0.57754        2.81071        2.54719
H         -1.14698        2.52892        2.12181
H          0.01320        1.19407        2.01399
H          1.14412        2.26170        0.27111
N         -0.11111       -2.48385        0.45574
C         -1.44343       -3.13292        0.36230
H         -2.16680       -2.50086        0.87419
H         -1.72100       -3.21090       -0.68729
H         -1.37652       -4.11802        0.83019
C          0.93036       -3.27007       -0.25265
H          0.65945       -3.32827       -1.30720
H          1.88796       -2.76273       -0.12952
H          0.97090       -4.27095        0.18285
C          0.27156       -2.21710        1.86749
H          1.24692       -1.72775        1.86842
H         -0.48906       -1.56528        2.29648
H          0.31722       -3.16848        2.40243
H         -0.13745       -1.55413       -0.00876
