42
1sa1msa2tma_15.log	Energy: -1075137.6524688
S          0.85165        0.12550        0.36626
O          1.18569        1.13190       -0.66190
O         -0.27404        0.55598        1.23826
O          0.60867       -1.22254       -0.21740
O          2.08431       -0.02038        1.32977
H          2.95053       -0.22437        0.75723
S         -2.86727       -1.65685       -0.15178
O         -4.00960       -2.47436       -0.50696
O         -2.97194       -0.20473       -0.32355
O         -1.63498       -2.20015       -0.97115
H         -0.76461       -1.74734       -0.70834
C         -2.40547       -1.96076        1.54035
H         -3.25067       -1.65617        2.15919
H         -2.21106       -3.02706        1.65355
H         -1.52328       -1.35692        1.76479
N         -1.63355        2.49693       -0.05451
C         -1.69240        2.29718       -1.52733
H         -0.68816        2.04305       -1.86763
H         -2.37330        1.47238       -1.73189
H         -2.04325        3.22227       -1.99142
C         -2.97440        2.73720        0.52999
H         -3.61116        1.88790        0.28641
H         -2.87085        2.82487        1.61217
H         -3.38246        3.66307        0.11749
C         -0.66770        3.56469        0.30632
H         -0.60890        3.63152        1.39295
H          0.30706        3.28304       -0.09304
H         -1.01013        4.51245       -0.11571
H         -1.24748        1.61607        0.37824
N          4.18671       -0.46359       -0.09749
C          5.20666       -1.13335        0.70763
H          5.45056       -0.51658        1.57651
H          4.81735       -2.09112        1.06154
H          6.12669       -1.31408        0.13052
C          3.77571       -1.29283       -1.23548
H          3.35699       -2.23183       -0.86782
H          2.99486       -0.77370       -1.79442
H          4.62639       -1.50496       -1.90122
C          4.62895        0.85930       -0.54362
H          3.79879        1.35254       -1.05455
H          4.90776        1.46013        0.32598
H          5.49322        0.78873       -1.22186
