28
1sa1msa1eda_05.log	Energy: -975737.1109593
S         -2.55692        0.62376        0.01289
O         -1.58495        1.70146       -0.21751
O         -2.11101       -0.16245        1.30838
O         -3.94238        0.95924        0.14893
O         -2.41389       -0.42751       -1.14552
H         -1.45561       -0.72091       -1.25914
S          0.85629       -1.58758       -0.09088
O          2.30435       -1.51931       -0.30638
O          0.05875       -1.22121       -1.29477
O          0.41998       -0.75638        1.09192
H         -1.13518       -0.41163        1.26732
C          0.43455       -3.26810        0.31671
H          0.72961       -3.89724       -0.52329
H          0.98006       -3.54457        1.21900
H         -0.64220       -3.32456        0.48096
H          1.56302        0.96196       -1.26018
H          1.54897        2.73013       -1.36648
H          3.87764        1.68972       -1.32322
H          3.60865        2.92406       -0.08770
H          3.44056        0.03166        0.42649
H          4.53155        1.10206        1.05515
H          0.00392        1.91854        0.27576
H          1.19786        1.05634        1.04470
C          1.83878        1.88292       -0.74244
C          3.32557        1.91065       -0.39808
N          1.02245        1.91898        0.50369
N          3.58656        1.00144        0.70669
H          1.25816        2.71911        1.08835
