30
1sa1msa2ma_79.log	Energy: -976492.0935238
S         -1.41539        0.63008        0.42361
O         -1.42927        1.07776       -0.97661
O         -1.14714       -0.85050        0.52991
O         -0.48493        1.41993        1.26012
O         -2.84225        0.81960        1.05357
H         -3.45185        0.05127        0.71582
S          2.29727       -1.00898        0.00707
O          2.85621       -0.06201        0.96582
O          1.93217       -0.42613       -1.29872
O          1.11074       -1.81525        0.59275
H          0.15329       -1.33397        0.55730
C          3.46309       -2.31939       -0.26566
H          4.36828       -1.86363       -0.66739
H          3.66357       -2.79747        0.69289
H          3.03335       -3.02525       -0.97560
N         -4.12917       -1.23261        0.07350
H         -3.38818       -1.90943        0.24253
C         -4.31645       -1.02584       -1.36991
H         -4.58577       -1.94326       -1.90551
H         -5.10144       -0.28204       -1.52371
H         -3.38970       -0.62514       -1.78672
H         -4.97582       -1.57999        0.51166
N          1.19230        2.21142       -0.69154
H          1.41753        1.28028       -1.09341
H          0.54832        2.67584       -1.33049
C          2.42166        2.97718       -0.40052
H          2.15788        3.91485        0.08811
H          3.03671        2.36926        0.26303
H          2.95800        3.17638       -1.32848
H          0.62975        2.00399        0.17723
