27
1sa1msa1a1ma_70.log	Energy: -951833.4861928
S         -1.28151       -0.89539        0.25565
O         -1.16997        0.28572        1.11588
O         -0.43575       -0.74676       -0.98648
O         -0.97355       -2.19064        0.90713
O         -2.77050       -1.02563       -0.23068
H         -3.09432       -0.09597       -0.55214
S          2.50963        0.80525       -0.06172
O          3.67225        1.55628       -0.47936
O          2.67540       -0.64102        0.18212
O          1.38168        1.01591       -1.13746
H          0.62177        0.33263       -1.04927
C          1.82851        1.51120        1.41916
H          2.55152        1.33861        2.21710
H          1.69481        2.57862        1.24322
H          0.87063        1.02662        1.62549
N          1.23424       -2.88246       -0.38831
H          0.37027       -2.76647        0.22252
H          1.85345       -2.06300       -0.19552
H          1.71683       -3.76137       -0.22649
H          0.91319       -2.80696       -1.35224
N         -3.45798        1.40825       -0.93046
H         -2.60584        1.80291       -1.32010
C         -3.83562        2.12205        0.29970
H         -3.99582        3.19447        0.14256
H         -4.75290        1.68185        0.69650
H         -3.04372        1.97376        1.03614
H         -4.17746        1.49555       -1.64147
