40
1sa1msa2eda_20.log	Energy: -1095297.4255852
S          2.34206       -0.09509       -0.70465
O          1.78161       -1.24409       -1.44898
O          2.02062        1.20245       -1.33633
O          2.09364       -0.13925        0.73762
O          3.95760       -0.24346       -0.81616
H          4.19882       -0.19801       -1.75134
S         -2.89444       -0.01855       -0.31834
O         -2.82386       -1.22145       -1.18646
O         -2.70592        1.26082       -1.05874
O         -1.98541       -0.11678        0.85291
C         -4.56155        0.03653        0.31466
H         -5.24336        0.12506       -0.53131
H         -4.74704       -0.88751        0.86254
H         -4.64974        0.90026        0.97379
H         -0.93366       -4.03841        0.82294
H          0.00529       -4.26234       -0.67743
H          1.36460       -4.61095        1.43379
H          2.01760       -3.35991        0.37044
H          1.40924       -2.99544        2.99978
H          1.52407       -1.77155        1.90281
H         -1.35376       -2.18509       -0.72086
H         -0.60426       -1.67593        0.63221
C         -0.10820       -3.65166        0.22135
C          1.18317       -3.60665        1.03944
N         -0.46441       -2.27718       -0.19368
N          1.04628       -2.64220        2.12530
H          0.30418       -1.85783       -0.75688
H         -1.00877        2.73167        1.47188
H          0.05476        1.33003        1.27063
H          1.26638        3.20477        2.42343
H          1.99444        2.79809        0.86703
H          0.35651        5.15906        1.42836
H          1.78693        5.05899        0.64107
H         -1.22590        2.00058       -0.75457
H         -0.27442        3.42115       -0.74950
C         -0.09531        2.37197        0.99159
C          1.10952        3.23493        1.33799
N         -0.31061        2.43397       -0.47736
N          0.90719        4.58369        0.80031
H          0.47493        1.94688       -0.95402
