35
1sa1msa1ma1eda_13.log	Energy: -1035902.5314413
S          2.61808       -0.54593       -0.23257
O          2.28308       -1.69250       -1.08315
O          2.59003        0.75528       -0.93580
O          1.87288       -0.53118        1.04564
O          4.15544       -0.73872        0.25888
H          4.72554       -0.69429       -0.52070
S         -2.79337       -0.35429       -0.02724
O         -1.63696       -0.40655       -0.99182
O         -2.99115        0.99288        0.52362
O         -2.66878       -1.43834        0.98505
C         -4.24216       -0.75143       -0.99042
H         -4.36114        0.01242       -1.75906
H         -4.10263       -1.73436       -1.44037
H         -5.09890       -0.75450       -0.31605
N         -0.13798       -2.35166        0.47062
H         -0.21185       -2.07812       -0.51362
H          0.55130       -1.68302        0.87165
C          0.32598       -3.74348        0.63088
H          0.43090       -3.95984        1.69366
H         -0.40238       -4.42281        0.18818
H          1.29022       -3.84262        0.13311
H         -1.08312       -2.15723        0.86765
H         -1.03969        2.19821        1.02292
H          0.52740        1.38577        1.27318
H          0.66206        3.82029        1.90012
H          1.74996        3.40795        0.56895
H         -0.81432        4.80388        0.29076
H          0.66092        5.26626       -0.24818
H         -0.64802        0.98652       -0.90668
H         -0.23304        2.60094       -1.26893
C          0.00691        2.16291        0.71082
C          0.69631        3.51334        0.84683
N          0.02113        1.77067       -0.72415
N          0.06896        4.46308       -0.07497
H          0.97811        1.45845       -0.98811
