36
1sa1msa1ma1tma_38.log	Energy: -1025816.8815600
S         -0.59049       -1.74955        0.34208
O         -1.41702       -2.75870       -0.31150
O          0.45727       -2.21651        1.25027
O          0.02453       -0.79368       -0.68103
O         -1.55495       -0.82078        1.20433
H         -2.49909       -0.82861        0.76917
S         -0.01144        2.54016        0.04934
O         -0.17450        3.90178       -0.41518
O          1.34082        1.99787        0.20662
O         -0.82400        1.60321       -0.93126
H         -0.52230        0.63456       -0.83924
C         -0.85705        2.33690        1.60140
H         -0.30358        2.90799        2.34768
H         -1.86577        2.73385        1.48551
H         -0.88359        1.27223        1.84164
N         -3.83251       -0.96818       -0.06265
H         -3.89447       -1.97876       -0.15951
C         -3.64018       -0.34565       -1.38183
H         -4.48470       -0.50664       -2.06097
H         -3.47935        0.72667       -1.25537
H         -2.74123       -0.77045       -1.83293
H         -4.68759       -0.64301        0.37671
N          2.70362       -0.77327       -0.31818
C          2.97803       -2.19744       -0.63677
H          2.44678       -2.81542        0.08685
H          2.60256       -2.40804       -1.63861
H          4.05547       -2.37144       -0.59075
C          3.32320        0.14318       -1.30641
H          2.95345       -0.11492       -2.29955
H          3.03179        1.16355       -1.06048
H          4.40859        0.02474       -1.26888
C          3.09438       -0.44267        1.07694
H          2.84417        0.60111        1.26082
H          2.51948       -1.08669        1.74223
H          4.16747       -0.61313        1.19279
H          1.65736       -0.65843       -0.39192
