38
1sa1msa1dma1eda_323.log	Energy: -1060543.2566915
S          0.21135        1.95580       -0.51350
O         -0.52795        0.87806       -1.24581
O          1.37238        2.48600       -1.21745
O         -0.78332        2.97184       -0.07304
O          0.72837        1.27233        0.82628
H         -2.13266        2.23938        0.23967
H          1.76045        1.22161        0.82057
S         -0.99653       -2.26581       -0.14535
O         -2.34786       -2.37146       -0.68490
O         -0.85351       -1.62375        1.15934
O         -0.04481       -1.57459       -1.20033
H         -0.20180       -0.55219       -1.23185
C         -0.22842       -3.86440       -0.08433
H         -0.23901       -4.29385       -1.08582
H          0.78907       -3.72732        0.28845
H         -0.82101       -4.47046        0.60173
N         -3.01066        1.74941        0.61175
C         -2.61784        1.01652        1.84432
C         -3.61616        0.88530       -0.43278
H         -3.66054        2.49670        0.85247
H         -1.89319        0.24551        1.57541
H         -2.15982        1.72507        2.53434
H         -3.50207        0.55769        2.29003
H         -2.91637        0.08797       -0.67592
H         -4.54551        0.45798       -0.05248
H         -3.80296        1.48793       -1.32125
H          4.27860       -1.15649        1.43345
H          4.39272       -1.82771       -0.18156
H          5.00941        0.46477       -0.35895
H          3.42119        0.30017       -1.12429
H          3.85468        1.37102        1.57330
H          3.38819        2.19550        0.22936
H          1.90079       -1.13790        1.22704
H          1.96788       -1.60012       -0.32419
C          3.80870       -1.14023        0.44140
C          3.94701        0.25939       -0.16452
N          2.45876       -1.66551        0.56288
N          3.34741        1.29152        0.69605
