30
1sa1msa2ma_06.log	Energy: -976509.4354006
S         -2.23507        0.10759       -0.54656
O         -2.12852        1.51297       -0.95416
O         -3.51014       -0.56268       -0.68022
O         -1.23261       -0.74407       -1.50345
O         -1.61410       -0.06876        0.83290
H         -0.34627       -0.30345       -1.50953
H          0.63209       -2.10699        0.45958
S          2.25834        0.00455       -0.25436
O          1.18603        0.41801       -1.20238
O          2.12281       -1.41237        0.18112
O          2.38020        0.95799        0.87786
H          0.90976        1.94415        0.94411
C          3.79115        0.08312       -1.15704
H          3.72822       -0.61464       -1.99201
H          3.92281        1.10426       -1.51466
H          4.59622       -0.19716       -0.47774
N         -0.34871       -2.43666        0.64034
H         -0.89286       -1.56759        0.88565
C         -0.41641       -3.47748        1.68371
H         -1.45805       -3.74064        1.86673
H          0.14081       -4.35758        1.36293
H          0.02713       -3.08172        2.59681
H         -0.73748       -2.73759       -0.25422
N         -0.09234        2.20875        0.85767
H         -0.31470        2.32325       -0.13722
C         -0.49156        3.38691        1.64949
H         -1.55475        3.56797        1.49332
H         -0.30025        3.19040        2.70409
H          0.08374        4.25541        1.32909
H         -0.64983        1.35897        1.10133
