28
1sa1msa1eda_18.log	Energy: -975733.3450804
S          0.63935        1.90189       -0.05763
O         -0.55764        2.34449       -0.76773
O          0.29439        0.89542        1.01853
O          1.78429        1.44971       -0.83536
O          1.20006        3.19042        0.75358
H          0.44166        3.70678        1.05798
S         -2.53152       -0.93585        0.03958
O         -3.64202       -1.76500        0.45071
O         -1.34003       -1.58944       -0.52770
O         -2.09175       -0.08104        1.29551
H         -1.19462        0.36407        1.16431
C         -3.07695        0.28410       -1.12960
H         -3.34269       -0.24515       -2.04533
H         -3.94839        0.78030       -0.70246
H         -2.26213        0.99322       -1.29594
H          2.03805       -2.61185       -1.31429
H          1.74049       -0.87123       -1.58900
H          4.19914       -1.35023       -1.33295
H          3.56891       -0.25682       -0.10057
H          4.29315       -3.06760        0.29474
H          4.63525       -1.77289        1.23201
H          0.29953       -1.91235        0.13065
H          1.72881       -2.12056        1.05881
C          2.11673       -1.61037       -0.88247
C          3.54382       -1.29095       -0.45565
N          1.25709       -1.57705        0.32838
N          3.92661       -2.18681        0.63888
H          1.11160       -0.59844        0.66599
