27
1sa1msa1a1ma_41.log	Energy: -951834.8487418
S          1.82671       -1.01015       -0.06063
O          1.10396       -2.27684       -0.12502
O          1.09458        0.09699       -0.75702
O          2.31075       -0.57620        1.25532
O          3.19556       -1.21187       -0.90754
H          3.00825       -1.82822       -1.62840
S         -2.30096       -0.38553        0.02247
O         -3.66302        0.01895       -0.24479
O         -1.65066        0.10909        1.24538
O         -1.43107        0.04270       -1.22681
H         -0.43629       -0.00509       -1.04094
C         -2.17483       -2.15664        0.03481
H         -2.74062       -2.51026        0.89753
H         -2.61097       -2.52772       -0.89258
H         -1.11822       -2.42408        0.11483
N          0.64102        1.52073        1.95361
H          0.85681        2.23312        1.17931
H          0.64428        1.94261        2.87701
H         -0.27746        1.08586        1.75472
H          1.35109        0.76281        1.88250
N          1.16391        3.01741       -0.30050
H          1.86161        3.75243       -0.35498
C         -0.08320        3.43308       -0.95826
H          0.05368        3.70629       -2.01059
H         -0.80209        2.61162       -0.91452
H         -0.50991        4.28851       -0.42860
H          1.54067        2.19473       -0.77203
