24
1sa1msa2a_23.log	Energy: -927175.4516273
S         -1.76000        0.52769        0.14924
O         -3.04572        0.34149        0.80821
O         -0.61084        0.77106        1.07737
O         -1.38996       -0.84571       -0.58071
O         -1.74604        1.57324       -0.90925
H         -2.17128       -1.50362       -0.50284
H         -0.43726        2.45546       -0.71196
S          2.43905       -0.49502        0.04973
O          3.77174       -0.90455        0.42932
O          2.27422        0.83845       -0.55823
O          1.51738       -0.60471        1.31825
H          0.63470       -0.10487        1.21293
C          1.74454       -1.67397       -1.08383
H          2.31944       -1.60992       -2.00830
H          1.84452       -2.66174       -0.63372
H          0.69491       -1.41891       -1.24367
N         -3.51522       -2.38065       -0.22974
H         -4.10901       -2.55390       -1.03381
H         -3.98080       -1.70491        0.37445
H         -3.40695       -3.25054        0.28075
N          0.48457        2.88729       -0.38591
H          0.36566        3.14027        0.59307
H          0.75315        3.69581       -0.93905
H          1.20929        2.13741       -0.43867
