29
1sa1msa1tma_44.log	Energy: -965630.2061589
S          0.67849        2.15013        0.10191
O         -0.04187        1.51025        1.18856
O          2.04200        2.57064        0.25866
O          0.59968        1.26400       -1.18834
O         -0.22990        3.42284       -0.26315
H         -0.26251        0.75542       -1.22009
H          0.28594        4.03486       -0.80891
S         -2.24333       -0.94083       -0.13834
O         -1.93605       -2.33639       -0.33779
O         -1.71106        0.04793       -1.09187
O         -1.81380       -0.49683        1.32437
H         -1.15662        0.24494        1.29849
C         -4.00200       -0.72269       -0.06431
H         -4.40332       -1.03218       -1.02985
H         -4.38396       -1.36041        0.73286
H         -4.21397        0.32784        0.13101
N          2.83980       -1.97623        0.36356
C          2.69063       -3.26612       -0.28447
H          3.65478       -3.59498       -0.68399
H          2.35040       -4.00986        0.44215
H          1.96025       -3.24041       -1.11704
C          1.58743       -1.54146        0.94967
H          1.23105       -2.28187        1.67149
H          1.72981       -0.59243        1.47433
H          0.79393       -1.40814        0.18731
C          3.35702       -0.98201       -0.55981
H          3.49118       -0.02637       -0.04491
H          4.32959       -1.30432       -0.94400
H          2.68170       -0.81302       -1.42097
