35
1sa1msa1ma1eda_58.log	Energy: -1035899.8012103
S         -1.26594        1.58572       -0.46968
O         -0.73660        0.51084       -1.53134
O         -0.68370        2.88470       -0.77495
O         -2.74037        1.48418       -0.62174
O         -0.85542        1.06152        0.87347
H         -3.19473        0.29489        0.30738
H          0.64064        1.56793        1.33139
S          2.26984       -1.08821       -0.15804
O          1.25840       -2.14283        0.01845
O          2.83859       -0.57192        1.12211
O          1.80841        0.04122       -1.02314
H          0.23378        0.32475       -1.37875
C          3.63804       -1.83403       -1.02592
H          4.02736       -2.64295       -0.40746
H          3.26423       -2.21944       -1.97472
H          4.39912       -1.07130       -1.19048
N          1.63908        1.80916        1.57733
H          1.66177        2.14989        2.53507
C          2.19078        2.80031        0.62105
H          3.20490        3.06484        0.92269
H          2.20124        2.32863       -0.36034
H          1.54508        3.67656        0.59386
H          2.16960        0.90207        1.51262
H         -4.19466       -2.50267        0.49911
H         -4.05835       -1.45614       -0.93931
H         -2.22895       -3.24990       -0.80167
H         -1.60337       -1.59727       -0.87069
H         -1.59112       -3.33415        1.44789
H         -0.48333       -2.23914        0.92158
H         -4.24979       -0.39786        1.44762
H         -2.61108       -0.80449        1.48032
C         -3.57201       -1.76317       -0.01209
C         -2.15752       -2.30584       -0.24888
N         -3.42922       -0.57937        0.87685
N         -1.48201       -2.41261        1.04004
