27
1sa1msa1a1ma_44.log	Energy: -951834.5082865
S         -1.64736        0.22366        0.29101
O         -0.85116        0.74724        1.40435
O         -2.98073        0.78658        0.09915
O         -0.83046        0.31863       -0.99706
O         -1.78416       -1.33576        0.55548
H          0.44196       -0.59395       -1.05353
H         -2.62146       -1.68141        0.08584
S          2.39730       -0.81014       -0.06829
O          3.57518       -1.57408       -0.41238
O          1.29726       -1.13489       -1.15174
O          2.54089        0.65272        0.05409
H          1.50813        1.93368       -0.39621
C          1.70309       -1.40800        1.45377
H          1.48399       -2.46760        1.32489
H          2.46206       -1.25888        2.22292
H          0.80000       -0.83552        1.67819
N         -4.07282       -1.93692       -0.65247
H         -4.74806       -2.48631       -0.13193
H         -4.04010       -2.28671       -1.60402
H         -4.38947       -0.96912       -0.67423
N          0.72000        2.49966       -0.77786
H          1.02231        2.92682       -1.65051
C          0.22026        3.49778        0.19951
H         -0.63545        4.01884       -0.22924
H         -0.09361        2.95281        1.08941
H          1.01514        4.20463        0.43656
H         -0.00955        1.76492       -0.98408
