40
1sa1msa2eda_299.log	Energy: -1095267.8247901
S         -0.27814       -1.25651        0.28047
O          0.49218       -0.21519        1.00894
O         -0.94559       -0.74054       -0.92066
O          0.77374       -2.37042       -0.16144
O         -1.21011       -1.99645        1.16541
H          1.55536       -1.94198       -0.58895
H         -2.65436       -2.01748        0.52126
S          3.60302        0.02652       -0.27502
O          3.52134        1.35702       -0.84172
O          2.99980       -1.08144       -1.02984
O          3.04580       -0.00573        1.20609
H          2.03802       -0.09249        1.19119
C          5.30001       -0.37656        0.05562
H          5.81357       -0.37997       -0.90618
H          5.71113        0.39280        0.70881
H          5.34131       -1.35900        0.52414
H         -5.47237       -1.04971        0.25739
H         -4.28661       -0.64035        1.52872
H         -4.65989        1.16255       -0.31305
H         -2.99193        0.73440        0.04301
H         -4.37787        0.32496       -2.42178
H         -2.78372        0.04970       -2.08008
H         -4.08189       -2.89676        0.27846
H         -3.49415       -1.90924       -0.95657
C         -4.42204       -0.82563        0.46205
C         -3.92504        0.35486       -0.38818
N         -3.62086       -2.01542        0.06888
N         -3.73634       -0.09889       -1.76567
H          0.47823        2.60685       -0.09303
H         -0.24410        4.12886       -0.58522
H         -0.63227        3.78593        1.76195
H         -2.17077        3.78524        0.89051
H         -0.81867        1.27941        1.62224
H         -2.00087        1.97547        2.51568
H         -1.09939        1.40438       -1.20412
H         -2.12808        2.67508       -1.40365
C         -0.48138        3.10689       -0.26385
C         -1.25140        3.20599        1.05741
N         -1.14981        2.40816       -1.35331
N         -1.63253        1.89044        1.57430
