23
1sa1msa1ma_06.log	Energy: -916338.1352616
S          1.93250       -0.81503       -0.03146
O          0.96555       -0.40740       -1.12612
O          3.11442       -1.48895       -0.50170
O          2.14399        0.37339        0.83887
O          1.13856       -1.89622        0.84920
H          1.26422        1.59374        0.28699
H          0.32112       -1.49608        1.21054
S         -2.00807       -0.20866        0.06017
O         -1.95004        1.24793       -0.14458
O         -1.38110       -0.69631        1.29068
O         -1.43721       -0.95767       -1.18019
H         -0.38761       -0.81937       -1.21319
C         -3.70297       -0.71745        0.01164
H         -4.20121       -0.23634        0.85365
H         -4.13246       -0.39163       -0.93514
H         -3.73304       -1.80220        0.10978
N          0.67279        2.29751       -0.24987
H          0.92135        2.14786       -1.22785
C          0.89561        3.68898        0.19316
H          0.27837        4.36817       -0.39479
H          0.62625        3.76611        1.24584
H          1.94910        3.93845        0.07017
H         -0.31583        2.00032       -0.15428
