41
1sa1msa1tma1eda_95.log	Energy: -1085213.0461283
S         -0.04173       -1.72869        0.22370
O         -0.66042       -0.93591        1.29749
O          0.64597       -0.78306       -0.76939
O          0.89309       -2.76482        0.64777
O         -1.18166       -2.41929       -0.60532
H         -1.83427       -1.68030       -0.96694
S          0.19673        2.56998       -0.04618
O         -0.08585        3.88781       -0.57515
O          1.58475        2.20225        0.25133
O         -0.38975        1.51191       -1.07260
H          0.04049        0.59321       -0.94142
C         -0.76817        2.29001        1.41854
H         -0.44947        3.02759        2.15618
H         -1.82221        2.41397        1.16511
H         -0.57378        1.26951        1.75354
H         -4.72112        0.26856       -1.26671
H         -4.60167       -1.48281       -1.55842
H         -5.26981       -0.89023        0.77671
H         -3.81426       -1.89152        0.69176
H         -3.91751        0.31838        2.11141
H         -2.53830       -0.14197        1.36706
H         -2.68974       -0.41329       -2.46317
H         -2.36201        0.35047       -1.06611
C         -4.15321       -0.63872       -1.02469
C         -4.21644       -0.89084        0.47850
N         -2.75016       -0.51096       -1.45375
N         -3.49807        0.15870        1.20346
N          3.24035       -0.65233       -0.14366
C          3.93152        0.42045       -0.89981
H          3.85480        0.20065       -1.96540
H          3.43802        1.36787       -0.68198
H          4.98189        0.44873       -0.60037
C          3.22627       -0.38217        1.31840
H          2.73889        0.57987        1.47767
H          2.65860       -1.17682        1.80414
H          4.25474       -0.36316        1.68675
C          3.78276       -1.99976       -0.44748
H          3.15792       -2.73737        0.05680
H          3.73454       -2.16111       -1.52486
H          4.81874       -2.05444       -0.10485
H          2.22537       -0.65924       -0.44343
