33
1sa1msa1ma1dma_50.log	Energy: -1001154.6606404
S         -1.50982       -0.35916       -0.19724
O         -1.90681       -1.57699        0.50156
O         -0.25479       -0.47698       -1.00863
O         -2.61347       -0.03240       -1.28876
O         -1.40752        0.84036        0.68181
H         -3.52049       -0.35574       -0.92756
H         -0.00887        1.58964        0.32966
S          2.79526       -0.79975        0.13205
O          2.50924       -0.48757        1.52601
O          2.91406        0.36596       -0.76253
O          1.77291       -1.82194       -0.45944
H          0.86886       -1.34973       -0.67135
C          4.28126       -1.76126        0.02163
H          4.13994       -2.66953        0.60686
H          4.46618       -1.99159       -1.02694
H          5.08555       -1.15363        0.43683
N         -4.77595       -0.95720       -0.09965
H         -5.61759       -1.20936       -0.60670
C         -5.07442       -0.06388        1.02750
H         -5.77456       -0.49599        1.75206
H         -4.13863        0.17223        1.53898
H         -5.49498        0.86843        0.64331
H         -4.34053       -1.81294        0.23757
N          0.82815        2.13755       -0.01395
C          1.46156        2.83723        1.12142
C          0.36520        3.00829       -1.11303
H          1.50292        1.44956       -0.39204
H          0.73347        3.50915        1.57821
H          1.78550        2.08606        1.84231
H          2.32347        3.40349        0.76434
H         -0.37037        3.71387       -0.72446
H          1.21553        3.54443       -1.53767
H         -0.09840        2.37602       -1.87056
