36
1sa1msa1ma1tma_35.log	Energy: -1025816.0098301
S         -1.48732        0.51209        0.41996
O         -2.54847        0.65026        1.41449
O         -1.51079        1.49307       -0.67436
O         -0.10249        0.47460        1.03121
O         -1.62401       -0.94596       -0.21859
H         -2.61466       -1.23802       -0.15417
S          2.15412       -1.83946       -0.02478
O          3.31199       -2.65868        0.26764
O          2.34932       -0.54633       -0.68676
O          1.38534       -1.60624        1.33663
H          0.73549       -0.83640        1.25435
C          0.99258       -2.77351       -0.99409
H          1.44857       -2.93808       -1.97106
H          0.81882       -3.72118       -0.48437
H          0.07078       -2.19357       -1.07174
N         -4.18529       -1.40317        0.05798
H         -4.57899       -2.33502        0.13416
C         -4.89001       -0.60229       -0.95178
H         -5.95790       -0.47782       -0.73969
H         -4.42390        0.38447       -0.99854
H         -4.77648       -1.07650       -1.92931
H         -4.24971       -0.95466        0.96978
N          1.42954        2.35643       -0.17085
C          1.44167        2.26446       -1.65363
H          1.98207        1.36147       -1.93341
H          0.40663        2.19571       -1.98862
H          1.92944        3.15469       -2.05807
C          0.66715        3.54249        0.29511
H         -0.33752        3.48340       -0.12306
H          0.60857        3.51273        1.38357
H          1.18140        4.44847       -0.03347
C          2.79578        2.31557        0.40634
H          2.71279        2.32243        1.49386
H          3.27797        1.39509        0.08020
H          3.35137        3.19304        0.06744
H          0.90657        1.51898        0.19569
