27
1sa1msa1a1ma_73.log	Energy: -951832.6333823
S         -1.43161       -1.23960       -0.00303
O         -2.49670       -0.54499        0.74295
O         -1.04913       -0.54772       -1.24608
O         -0.29163       -1.60767        0.86015
O         -2.02011       -2.68516       -0.43610
H         -2.77629       -2.54499       -1.02205
S          2.52322        0.20636       -0.01777
O          3.93770        0.45179        0.15136
O          1.56857        1.11495        0.63520
O          2.23393       -1.27129        0.45205
H          1.24619       -1.43439        0.57601
C          2.11782        0.16982       -1.74844
H          2.30195        1.16911       -2.14522
H          2.77136       -0.55872       -2.22826
H          1.06566       -0.10957       -1.84465
N         -0.85916        1.43075        1.90926
H         -1.12799        1.97126        0.99595
H         -0.90955        1.99685        2.75003
H         -1.49991        0.62548        1.94806
H          0.10441        1.09885        1.74529
N         -1.50445        2.36290       -0.54417
H         -0.98729        3.14037       -0.94251
C         -2.95063        2.52339       -0.74665
H         -3.22798        2.62370       -1.80195
H         -3.45051        1.64278       -0.33713
H         -3.30256        3.40808       -0.20910
H         -1.19220        1.50894       -1.01320
