33
1sa1msa1ma1dma_04.log	Energy: -1001172.6226221
S          2.09834       -0.46660       -0.57418
O          1.50389       -0.09539        0.75613
O          1.17890        0.31481       -1.65025
O          3.43511        0.03985       -0.79916
O          1.88341       -1.91560       -0.81079
H          0.59368       -2.39723        0.07590
S         -2.23718       -0.02726       -0.34185
O         -2.05879        1.43642       -0.16245
O         -2.15285       -0.78577        0.93737
O         -1.33869       -0.60718       -1.37496
H          0.25748       -0.04998       -1.62687
C         -3.89823       -0.23622       -0.95088
H         -3.98444        0.30936       -1.89048
H         -4.07190       -1.30087       -1.10715
H         -4.58684        0.16263       -0.20588
N         -0.13442       -2.67279        0.79246
H         -0.86467       -1.92426        0.82621
C          0.51615       -2.82963        2.11271
H         -0.23508       -3.06015        2.86823
H          1.25821       -3.62595        2.05747
H          1.01177       -1.88590        2.33743
H         -0.58418       -3.53055        0.48118
N          0.37750        2.32099        0.69651
C          0.13549        2.83927        2.05578
C          1.16244        3.21681       -0.17840
H          0.87424        1.38938        0.76267
H         -0.39957        3.78853        1.99520
H         -0.46872        2.11325        2.60013
H          1.09148        2.98244        2.56209
H          0.63538        4.16513       -0.29741
H          2.14175        3.38468        0.27256
H          1.28929        2.72326       -1.14177
H         -0.54086        2.08194        0.26178
