33
1sa1msa1ma1dma_192.log	Energy: -1001139.8661823
S          1.28411       -1.04137        0.18111
O          0.36357       -0.67821        1.27015
O          2.48250       -1.78815        0.61670
O          0.52954       -2.05409       -0.78087
O          1.66805        0.14744       -0.64160
H         -0.37932       -1.70599       -0.98075
H          3.35205        0.07269       -1.00462
S         -2.90477       -0.62854       -0.13973
O         -4.11251       -1.42369       -0.13899
O         -1.85611       -0.93129       -1.12845
O         -2.26580       -0.71237        1.30890
H         -1.26749       -0.67597        1.27857
C         -3.30598        1.08904       -0.30148
H         -3.76390        1.21630       -1.28359
H         -4.01577        1.33808        0.48780
H         -2.36715        1.65637       -0.21503
N          4.26572       -0.35371       -0.70970
H          3.88114       -1.17143       -0.17405
C          5.01877        0.56119        0.17725
H          5.90269        0.05448        0.56293
H          5.30701        1.45406       -0.37680
H          4.36237        0.83584        1.00243
H          4.80183       -0.66536       -1.51574
N         -0.35309        2.41836       -0.05878
C         -0.05540        2.72025        1.33090
C         -0.22799        3.57164       -0.93079
H          0.26141        1.67372       -0.37880
H         -0.81835        3.39588        1.73568
H         -0.06726        1.79525        1.91159
H          0.92774        3.20592        1.47048
H         -0.98227        4.32148       -0.66425
H          0.76073        4.06231       -0.87248
H         -0.40370        3.27258       -1.96803
