28
1sa1msa1eda_15.log	Energy: -975731.3682624
S          0.96808        1.84207       -0.03119
O         -0.47115        2.21107        0.02148
O          1.34020        0.94816        1.09414
O          1.45390        1.39545       -1.32731
O          1.74162        3.23819        0.23987
H          1.33862        3.65969        1.01130
S         -2.55870       -0.59718        0.09957
O         -2.49851       -0.47169        1.54560
O         -1.60843       -1.54659       -0.50892
O         -2.45750        0.79123       -0.61485
H         -1.62747        1.33896       -0.34460
C         -4.19169       -1.06250       -0.41501
H         -4.38636       -2.04705        0.01094
H         -4.89390       -0.32595       -0.02564
H         -4.21696       -1.09678       -1.50368
H          1.61723       -2.70066       -1.31544
H          1.57062       -0.92189       -1.49334
H          3.93549       -1.73162       -1.31831
H          3.48261       -0.67539        0.02199
H          3.81180       -3.57926        0.16010
H          4.35803       -2.42862        1.18507
H          0.01049       -1.78442        0.18796
H          1.36992       -2.32291        1.07712
C          1.84499       -1.74605       -0.83330
C          3.30834       -1.66028       -0.42135
N          1.01548       -1.64618        0.39569
N          3.58347       -2.68775        0.58651
H          1.11637       -0.67846        0.79521
