35
1sa1msa1ma1eda_37.log	Energy: -1035899.9406618
S          2.94748        0.04947        0.08500
O          2.77508        1.21668        0.95016
O          3.05367       -1.23996        0.80153
O          1.96756       -0.01332       -1.02824
O          4.35617        0.24167       -0.70353
H          5.05427        0.35376       -0.04413
S         -2.49967       -0.91612       -0.11195
O         -2.19098       -2.08435       -0.95436
O         -2.93752        0.29984       -0.81459
O         -1.33098       -0.61039        0.81055
C         -3.83222       -1.39399        0.97621
H         -4.69980       -1.62179        0.35611
H         -3.52322       -2.27460        1.53970
H         -4.04787       -0.56278        1.64760
N          0.65095       -2.36180        0.00102
H         -0.07469       -1.73229        0.41715
H          0.71798       -2.06988       -0.97533
C          0.27117       -3.78309        0.13735
H          1.02642       -4.40870       -0.33823
H          0.21064       -4.02557        1.19819
H         -0.70132       -3.92098       -0.33417
H          1.57277       -2.12836        0.42468
H         -0.16087        3.19131       -1.56117
H         -1.40972        1.91489       -1.68378
H         -2.39373        4.02129       -0.78778
H         -2.48562        2.68336        0.35721
H         -0.62592        4.94748        0.52142
H         -1.59320        4.32756        1.68683
H          0.73166        1.18718       -0.62336
H          0.38514        2.24022        0.62719
C         -0.84813        2.55182       -1.00023
C         -1.79404        3.37324       -0.13525
N         -0.03343        1.67997       -0.12251
N         -1.02652        4.08881        0.88286
H         -0.60957        0.92603        0.31300
