35
1sa1msa1ma1eda_85.log	Energy: -1035889.4753726
S         -2.71150       -0.25986       -0.17520
O         -2.14729        1.12891       -0.20390
O         -2.31931       -1.03971       -1.34976
O         -2.53551       -0.91841        1.12191
O         -4.31215       -0.03730       -0.25135
H         -4.52504        0.31906       -1.12464
S          1.20591        1.99747        0.11187
O          2.50903        1.56308       -0.37495
O          0.79220        1.53577        1.43890
O          0.14900        1.59515       -0.96520
H         -0.82520        1.38817       -0.60816
C          1.14454        3.77331        0.10861
H          1.88579        4.12747        0.82548
H          1.37906        4.11959       -0.89770
H          0.14087        4.07782        0.40631
N          0.20323       -1.24776        1.58350
H          0.45579       -1.34119        0.54230
H          0.58434       -0.34099        1.87414
C          0.71955       -2.38273        2.37076
H          0.52565       -2.22026        3.43156
H          0.21255       -3.29212        2.04634
H          1.78902       -2.46934        2.17621
H         -0.82900       -1.16820        1.61441
H          3.33074       -1.13470       -1.85963
H          3.79960       -2.74026       -1.30190
H          1.66378       -2.77617       -2.51042
H          1.49726       -3.35419       -0.84385
H          0.86190       -0.57527       -1.58509
H         -0.26388       -1.74044       -1.46933
H          4.14893       -1.54058        0.56399
H          2.96677       -0.46994        0.28159
C          3.08233       -1.92931       -1.13932
C          1.68985       -2.46547       -1.45609
N          3.18885       -1.46298        0.24715
N          0.66293       -1.46999       -1.14168
