40
1sa1msa2eda_229.log	Energy: -1095279.1944522
S         -0.13531       -1.33355       -0.00382
O          0.61477       -0.50191       -0.99593
O         -1.25723       -2.06785       -0.61677
O          0.86556       -2.46130        0.49372
O         -0.56181       -0.51824        1.14729
H          1.70926       -2.03296        0.78241
H         -3.24602        0.09981        0.74482
S          3.82796       -0.20987        0.03992
O          5.25063       -0.42250       -0.10264
O          3.08523       -1.00339        1.02954
O          3.16792       -0.42403       -1.38265
H          2.16876       -0.50967       -1.28992
C          3.51181        1.50493        0.38548
H          3.94172        1.71404        1.36612
H          4.01176        2.09449       -0.38332
H          2.43274        1.68906        0.39053
H         -1.87091        2.62972        1.20403
H         -0.88860        4.09665        1.15159
H         -1.98569        3.75356       -0.98203
H         -0.22041        3.64911       -1.15266
H         -1.40054        1.89567       -2.33793
H         -0.45200        1.24235       -1.19720
H          0.54313        2.61804        2.09203
H          0.07845        1.34418        1.19022
C         -0.95469        3.07055        0.77462
C         -1.10530        3.14687       -0.73996
N          0.25539        2.34933        1.15772
N         -1.29320        1.81228       -1.33067
H         -4.85046       -2.07185       -0.03810
H         -6.28085       -1.18520       -0.57312
H         -4.26814       -0.56621       -1.92287
H         -4.85611        0.83388       -1.00346
H         -2.53575       -0.91207       -0.36895
H         -2.49127        0.74721       -0.64941
H         -6.11566        0.14354        1.38110
H         -5.54093       -1.27439        1.96716
C         -5.30698       -1.07792       -0.07840
C         -4.41681       -0.16455       -0.91848
N         -5.38147       -0.54799        1.28071
N         -3.10266       -0.04074       -0.26044
