32
1sa1msa1a1eda_318.log	Energy: -1011209.8092568
S         -2.23450       -0.20927       -0.45493
O         -1.05896       -0.03611       -1.30755
O         -3.49935       -0.57337       -1.04741
O         -1.91884       -1.30075        0.63600
O         -2.38107        1.12454        0.34488
H         -0.95029       -1.29474        0.89174
H         -3.33962        1.17774        0.75785
S          1.63804       -1.81687        0.15474
O          1.66787       -3.24915       -0.04822
O          0.66032       -1.27585        1.11740
O          1.40933       -1.07299       -1.23652
H          0.48378       -0.71993       -1.29490
C          3.24461       -1.22195        0.58600
H          3.51833       -1.72942        1.51239
H          3.92417       -1.50977       -0.21701
H          3.20632       -0.13189        0.72564
N         -4.82347        1.11770        1.24311
H         -5.30628        2.01033        1.26145
H         -4.92953        0.68057        2.15341
H         -5.27705        0.52211        0.55370
H          2.96112        3.92145        0.14453
H          4.03479        2.71947       -0.59017
H          1.98403        2.96115       -1.92198
H          2.08687        1.34008       -1.22396
H          0.29895        3.46487       -0.32730
H         -0.03775        1.89319       -0.64621
H          3.70336        2.39886        1.84316
H          2.13159        2.03592        1.51992
C          3.07933        2.84535       -0.06827
C          1.93953        2.39619       -0.97864
N          3.07692        2.02236        1.14027
N          0.66587        2.52141       -0.27515
