30
1sa1msa2ma_43.log	Energy: -976494.4990312
S          1.29742        0.37631        0.59672
O          0.99133       -0.99962        0.09192
O          0.33084        0.84306        1.60459
O          2.68928        0.26006        1.31131
O          1.43254        1.33738       -0.53203
H          3.29652       -0.38403        0.75948
H         -0.00663        2.26562       -0.51597
S         -2.49736       -1.09395       -0.22375
O         -3.65029       -1.85528       -0.65004
O         -2.53097        0.36082       -0.45865
O         -1.23265       -1.71323       -0.92054
H         -0.34919       -1.36099       -0.54778
C         -2.19597       -1.34495        1.51178
H         -3.07441       -0.97166        2.03974
H         -2.07222       -2.41485        1.67867
H         -1.30102       -0.78514        1.79656
N          3.99235       -1.40135       -0.20796
H          4.83196       -1.85592        0.13611
C          4.22476       -0.76401       -1.51290
H          4.53732       -1.47333       -2.28699
H          3.30266       -0.27158       -1.82825
H          4.99398        0.00331       -1.40253
H          3.26400       -2.10747       -0.28559
N         -0.94242        2.56377       -0.14683
H         -1.57175        1.74587       -0.28869
C         -1.47081        3.80323       -0.74617
H         -2.42796        4.05035       -0.28750
H         -0.76068        4.61480       -0.58858
H         -1.61257        3.64255       -1.81431
H         -0.78904        2.61657        0.86288
