41
1sa1msa1tma1eda_103.log	Energy: -1085209.7240994
S          0.05888       -1.55074       -0.49242
O          0.46335       -0.73694       -1.66491
O         -0.10652       -0.64374        0.72468
O         -1.25154       -2.24729       -0.68866
O          1.13806       -2.56132       -0.18835
H         -2.34390       -1.43060        0.03189
H          2.40939       -2.00450       -0.61570
S         -0.20721        2.68410       -0.01473
O          0.21546        4.01947        0.36687
O         -1.60127        2.29379        0.22240
O          0.74689        1.65333        0.68195
H          0.35635        0.65777        0.67327
C          0.12765        2.44002       -1.74713
H         -0.56226        3.07368       -2.30599
H          1.15794        2.74477       -1.93469
H         -0.01073        1.37929       -1.97460
H          4.20440        0.43244       -0.78807
H          2.41790        0.37970       -0.74977
H          3.34144        0.85638        1.52604
H          2.46462       -0.66958        1.47547
H          5.36358       -0.35697        1.64179
H          4.38758       -1.40559        2.42670
H          3.42652       -1.53076       -1.91873
H          4.13839       -1.97360       -0.46012
C          3.33118       -0.09641       -0.39323
C          3.37009       -0.16350        1.12775
N          3.35121       -1.49251       -0.90563
N          4.54297       -0.94409        1.53878
N         -3.25343       -0.98440        0.39227
C         -3.67048       -0.00764       -0.64275
H         -2.92087        0.78351       -0.68810
H         -3.73746       -0.52533       -1.60040
H         -4.64063        0.41589       -0.36986
C         -4.20755       -2.10757        0.51048
H         -4.29181       -2.60007       -0.45876
H         -3.82366       -2.81998        1.24134
H         -5.18200       -1.72905        0.82935
C         -2.99985       -0.32620        1.69712
H         -2.54967       -1.05423        2.37176
H         -2.30946        0.50112        1.53840
H         -3.94909        0.03815        2.10006
