40
1sa1msa2eda_119.log	Energy: -1095294.6318441
S         -3.01713       -0.74149       -0.26004
O         -2.12039       -0.51534        0.89938
O         -3.24550        0.48784       -1.04578
O         -2.64490       -1.91566       -1.05520
O         -4.43547       -1.08113        0.46005
H         -5.09924       -1.20381       -0.23202
S          2.43475        0.63321       -0.23170
O          2.82594       -0.27873        0.86054
O          2.35734        2.06125        0.12849
O          1.16123        0.16887       -0.90184
C          3.68256        0.47887       -1.49925
H          3.41460        1.13308       -2.32904
H          4.63947        0.77484       -1.06835
H          3.70495       -0.56203       -1.82477
H          1.31690       -1.99714        1.83130
H          0.10586       -3.30084        1.92713
H          2.36821       -4.19486        1.51956
H          1.28378       -4.57804        0.17881
H          3.13121       -2.29101        0.11851
H          3.32120       -3.70897       -0.71653
H         -0.73458       -1.50576        0.62291
H          0.62117       -1.43853       -0.33769
C          0.80602       -2.78219        1.26894
C          1.81374       -3.75561        0.67559
N          0.02637       -2.09130        0.21463
N          2.64345       -3.07694       -0.30843
H         -0.44198       -2.72737       -0.43352
H          0.52272        3.18196       -1.04850
H         -1.15475        3.65331       -1.42421
H          0.03043        5.05220        0.37969
H         -1.53054        4.37795        0.87511
H          1.04473        3.10237        1.52353
H         -0.01364        3.81039        2.59194
H         -0.22055        1.17595       -0.63680
H         -0.90424        1.79673        0.72597
C         -0.49271        3.25208       -0.65578
C         -0.50003        4.11743        0.60811
N         -0.92143        1.87234       -0.30366
N          0.06960        3.34065        1.70007
H         -1.85715        1.58843       -0.64432
