36
1sa1msa1ma1tma_90.log	Energy: -1025810.5055304
S          0.16533        0.02175        0.87606
O         -0.23893        1.04108       -0.13432
O         -0.06613       -1.35025        0.39326
O          1.54849        0.24411        1.35132
O         -0.72283        0.26860        2.16982
H         -1.67165        0.27842        1.89171
S         -3.57717        0.03714       -0.32340
O         -4.92455        0.34211       -0.74633
O         -3.20778        0.26387        1.08003
O         -2.58624        0.85013       -1.25141
H         -1.67758        0.94249       -0.82462
C         -3.19859       -1.65729       -0.71028
H         -3.85983       -2.27730       -0.10357
H         -3.39170       -1.81123       -1.77189
H         -2.15142       -1.83816       -0.45670
N          2.56891        2.10327       -1.05292
H          2.57729        2.68432       -1.88557
C          3.17028        2.83136        0.06856
H          2.71291        3.81054        0.26321
H          3.06164        2.22922        0.97391
H          4.23828        2.98748       -0.11895
H          1.58828        1.91791       -0.84151
N          3.16843       -1.07629       -0.32690
C          2.52664       -1.17734       -1.66392
H          1.51022       -1.54751       -1.52602
H          2.50710       -0.17608       -2.09469
H          3.11043       -1.86210       -2.28370
C          4.52889       -0.49711       -0.41733
H          4.43347        0.47794       -0.89736
H          4.93142       -0.38126        0.58973
H          5.16645       -1.16494       -1.00137
C          3.13558       -2.37239        0.39547
H          3.58508       -2.23641        1.37938
H          2.09120       -2.66589        0.51108
H          3.69295       -3.11741       -0.17660
H          2.58046       -0.42167        0.25562
