30
1sa1msa1a1dma_131.log	Energy: -976473.3764789
S          0.55584       -0.80613       -0.55054
O          1.83431       -0.89552       -1.22208
O         -0.64712       -1.23269       -1.25721
O          0.59808       -1.58508        0.79603
O          0.39248        0.70854       -0.13116
H          1.59033       -1.59922        1.17460
H         -0.53357        0.87597        0.19604
S         -3.33515        0.49550        0.05498
O         -3.84232        1.32579       -1.01468
O         -2.10197        0.92262        0.73774
O         -3.15068       -1.00760       -0.41680
H         -2.22582       -1.15393       -0.76134
C         -4.58906        0.25790        1.28594
H         -4.81280        1.24156        1.69965
H         -5.46722       -0.16276        0.79636
H         -4.20204       -0.41210        2.05244
N          3.05678       -1.60105        1.54817
H          3.31187       -0.89765        2.23538
H          3.53581       -1.37017        0.67939
H          3.40273       -2.49973        1.87041
N          3.99548        1.36042       -0.51021
C          3.52855        1.98527        0.70661
C          5.28882        0.72727       -0.38621
H          3.30050        0.72765       -0.89109
H          4.18411        2.82340        0.96983
H          2.51847        2.37189        0.55943
H          3.50896        1.30488        1.58337
H          6.05870        1.48594       -0.20413
H          5.36027       -0.00399        0.44657
H          5.54090        0.21157       -1.31635
