40
1sa1msa2eda_296.log	Energy: -1095269.8362278
S         -0.95620       -0.92548       -1.09203
O         -2.15147       -1.56862       -1.61751
O          0.30591       -1.17568       -1.80731
O         -1.15727        0.55161       -0.88342
O         -0.79814       -1.53789        0.38688
H         -2.56686        0.90680       -0.43816
H          0.07607       -1.26270        0.76490
S          2.90802       -1.09616        0.62028
O          3.71747       -2.01304        1.39106
O          1.60218       -0.67832        1.17271
O          2.65670       -1.74128       -0.80139
H          1.76773       -1.48174       -1.18759
C          3.82060        0.37557        0.25391
H          4.01881        0.87649        1.20243
H          4.74731        0.07363       -0.23450
H          3.18604        1.00322       -0.38574
H         -0.41036        2.84057        0.30307
H          0.47659        4.26882        0.86520
H          0.71955        4.00060       -1.52298
H          2.28992        3.81626       -0.71440
H          0.64731        1.50193       -1.49167
H          1.90633        2.07107       -2.37156
H          0.96448        2.55538        2.36871
H          1.35903        1.49100        1.19901
C          0.60019        3.25133        0.47711
C          1.31361        3.34178       -0.86725
N          1.37094        2.47795        1.44310
N          1.52748        2.01063       -1.43275
H         -5.49805        0.31033       -0.09948
H         -4.28412       -0.58054       -1.07831
H         -4.82721       -1.72488        1.12894
H         -3.12065       -1.33813        0.91357
H         -4.97291       -0.00988        2.72820
H         -3.38940       -0.37449        2.92685
H         -3.91516        1.92024       -0.68917
H         -3.53323        1.44111        0.87670
C         -4.46283       -0.03940       -0.14883
C         -4.10974       -0.89954        1.06490
N         -3.57180        1.15511       -0.11416
N         -4.07584       -0.04819        2.25762
