38
1sa1msa1dma1eda_91.log	Energy: -1060560.3575168
S          2.90539        0.20019       -0.01226
O          4.22003       -0.40904        0.05558
O          2.83049        1.59805        0.46484
O          2.13647       -0.00814       -1.25930
O          1.94829       -0.64974        1.05317
H          2.44709       -0.75410        1.87405
S         -2.62948        0.30918       -0.10448
O         -2.63631       -0.34116       -1.42996
O         -2.98089        1.73494       -0.08263
O         -1.28419        0.07926        0.57567
C         -3.79423       -0.57088        0.91791
H         -4.77518       -0.49371        0.44827
H         -3.46848       -1.61051        0.98063
H         -3.80297       -0.10644        1.90405
N          0.20659        2.36305        0.19674
C         -0.33819        3.40714        1.08875
C          0.04183        2.65719       -1.24623
H          1.21868        2.18637        0.38449
H         -1.41144        3.48599        0.90934
H         -0.15616        3.11421        2.12295
H          0.16043        4.35542        0.88221
H         -1.02429        2.71353       -1.47096
H          0.53613        3.60283       -1.47388
H          0.51942        1.85271       -1.80652
H         -0.29246        1.46761        0.40212
H         -1.20291       -3.34278       -1.14968
H          0.46744       -3.54239       -1.74834
H          0.29071       -4.50602        0.47087
H          1.30527       -3.05745        0.56953
H         -0.53469       -3.34536        2.29032
H         -0.59636       -1.90350        1.51932
H         -0.64826       -1.29093       -2.02107
H         -0.49059       -1.04367       -0.43117
C         -0.16096       -3.05190       -1.00159
C          0.27760       -3.41371        0.41002
N         -0.07760       -1.58514       -1.22594
N         -0.68220       -2.90899        1.38795
H          0.88921       -1.21452       -1.33201
