41
1sa1msa1tma1eda_230.log	Energy: -1085191.5066147
S          0.88146       -1.64126        0.18320
O          0.01720       -1.10229        1.24717
O          1.95903       -2.52746        0.63398
O         -0.02173       -2.54079       -0.76521
O          1.42714       -0.53537       -0.67993
H         -0.84883       -2.04324       -0.99406
H          2.95345       -0.79400       -0.81208
S         -3.22876       -0.76052       -0.11296
O         -4.41242       -1.59076       -0.15857
O         -2.16780       -0.98246       -1.11049
O         -2.58699       -0.88018        1.33028
H         -1.58809       -0.95338        1.29113
C         -3.69568        0.94643       -0.19436
H         -4.16828        1.09599       -1.16643
H         -4.41175        1.12793        0.60783
H         -2.79532        1.56788       -0.08676
H          4.63675        1.32108       -1.26295
H          5.28220        1.85716        0.28697
H          5.73081       -0.46131        0.29162
H          4.25343       -0.31144        1.27768
H          4.44866       -1.26783       -1.50485
H          3.77553       -2.03098       -0.16924
H          3.09462        2.76083        0.04888
H          2.40838        1.26970       -0.06347
C          4.48255        1.26525       -0.16897
C          4.67612       -0.17872        0.27983
N          3.20902        1.78551        0.29640
N          3.95857       -1.12659       -0.62418
N         -0.96848        2.74827        0.00555
C         -0.27508        2.36111       -1.21057
H         -0.07287        1.28772       -1.20031
H         -0.89582        2.59189       -2.08222
H          0.68988        2.89565       -1.32904
C         -1.28087        4.16470        0.01169
H         -1.89290        4.41687       -0.86021
H         -1.84637        4.41789        0.91371
H         -0.37152        4.79711       -0.01202
C         -0.21793        2.36313        1.19063
H         -0.80061        2.59173        2.08832
H         -0.01836        1.28912        1.17557
H          0.74991        2.89486        1.26644
