36
1sa1msa1ma1tma_16.log	Energy: -1025823.5076961
S         -2.41440       -0.51543       -0.45461
O         -2.56457        0.62745       -1.36199
O         -2.07408       -1.78907       -1.10510
O         -1.57138       -0.22774        0.73323
O         -3.87597       -0.73939        0.24121
H         -4.52097       -0.87562       -0.46594
S          2.71547       -0.26609       -0.13671
O          2.84582       -1.70860        0.21984
O          3.38699        0.66155        0.78371
O          1.27799        0.08746       -0.36397
C          3.51171       -0.08757       -1.73135
H          3.46547        0.96267       -2.02160
H          4.54868       -0.40761       -1.62736
H          2.98518       -0.71230       -2.45299
N          0.23694       -2.36789        0.40297
H          0.08219       -1.36808        0.60641
H         -0.32432       -2.51240       -0.44472
C         -0.23117       -3.22257        1.50929
H         -0.06837       -4.26993        1.25552
H          0.33211       -2.97305        2.40817
H         -1.29249       -3.03638        1.66983
H          1.26185       -2.43866        0.21777
N         -0.36865        2.27766        0.44132
C         -0.06203        2.70773       -0.94826
H          0.87402        2.23741       -1.24114
H         -0.86830        2.35651       -1.59209
H          0.01393        3.79733       -0.96753
C         -1.67102        2.82561        0.90324
H         -2.43796        2.52950        0.18857
H         -1.89798        2.40026        1.88008
H         -1.58884        3.91252        0.96856
C          0.73035        2.60363        1.38628
H          0.45765        2.22975        2.37388
H          1.64876        2.11590        1.05761
H          0.84909        3.68899        1.41989
H         -0.48015        1.24490        0.42753
