41
1sa1msa1tma1eda_98.log	Energy: -1085209.5097359
S         -0.92669        0.04715        0.87242
O         -0.09781       -0.42245       -0.30152
O         -1.48309       -1.05371        1.64880
O         -0.17409        1.06910        1.63462
O         -2.11851        0.85070        0.20490
H          1.16540        1.57201        0.79829
H         -2.87102        0.17824       -0.08506
S          3.09258       -1.44719       -0.09423
O          3.33270       -1.28612        1.32993
O          3.24691       -0.22953       -0.91498
O          1.71062       -2.11098       -0.38575
H          0.91461       -1.43148       -0.28305
C          4.17401       -2.69310       -0.74904
H          3.99452       -3.61865       -0.20243
H          3.96464       -2.81521       -1.81106
H          5.19379       -2.34227       -0.58900
H          1.76510        2.78253       -1.83883
H          0.43579        1.66845       -1.42244
H         -0.35318        4.06205       -1.42734
H         -0.48906        3.31071        0.16548
H          1.49427        5.30377       -0.63625
H          0.62661        5.20111        0.74749
H          2.49418        1.22682       -0.20182
H          2.32674        2.76284        0.52579
C          1.05831        2.48699       -1.05832
C          0.22481        3.66993       -0.58127
N          1.83980        1.97325        0.09366
N          1.10948        4.65708        0.04326
N         -3.97236       -0.83539       -0.46437
C         -4.66750       -1.16701        0.78205
H         -3.93706       -1.53783        1.50383
H         -5.12915       -0.26413        1.18992
H         -5.44896       -1.92530        0.61730
C         -4.87802       -0.23450       -1.44036
H         -5.32540        0.66837       -1.01663
H         -4.31730        0.04282       -2.33695
H         -5.68394       -0.92790       -1.72830
C         -3.29566       -2.01209       -1.01726
H         -2.71803       -1.71855       -1.89746
H         -2.60560       -2.40861       -0.26988
H         -4.01920       -2.79128       -1.30303
