38
1sa1msa1dma1eda_257.log	Energy: -1060546.7770949
S         -1.81780        1.50909        0.39420
O         -3.06813        1.27919       -0.32881
O         -1.30358        0.37607        1.16515
O         -0.76968        2.15481       -0.45433
O         -2.15178        2.61891        1.53648
H         -2.71853        3.29045        1.13403
S          2.34651        0.73151       -0.43343
O          3.12279       -0.43337       -0.83910
O          1.95311        0.82657        0.97216
O          1.08709        0.79406       -1.35905
H          0.29467        1.35837       -0.95982
C          3.24080        2.20928       -0.85603
H          4.15798        2.22013       -0.26637
H          3.46413        2.17815       -1.92224
H          2.61202        3.06568       -0.61004
N          0.54166       -1.62189        1.61144
C         -0.56224       -2.18622        2.41222
C          1.87651       -2.12653        1.98811
H          0.37716       -1.84285        0.56063
H         -0.38941       -1.98482        3.47119
H         -1.48981       -1.71079        2.09809
H         -0.60387       -3.26483        2.24634
H          2.10817       -1.83024        3.01255
H          1.87356       -3.21599        1.91109
H          2.61553       -1.70861        1.30522
H          0.51802       -0.59335        1.65123
H         -0.93091       -3.38419       -2.39188
H         -1.07498       -3.80964       -0.67982
H         -3.11626       -2.66790       -1.42711
H         -2.26802       -1.65424       -0.25097
H         -2.37146       -1.17231       -3.11912
H         -2.60701       -0.13293       -1.85661
H          1.06169       -2.61879       -1.40833
H          0.13540       -1.28012       -1.51783
C         -0.98390       -2.96701       -1.37591
C         -2.21132       -2.06324       -1.26559
N          0.21603       -2.18641       -1.04807
N         -2.07558       -0.93717       -2.17898
