38
1sa1msa1dma1eda_236.log	Energy: -1060547.5817189
S          0.12107        2.01676       -0.01853
O         -1.08258        2.73291       -0.44709
O          0.09418        1.41930        1.31399
O          0.58249        1.04267       -1.06059
O          1.31024        3.12253        0.08397
H          1.24580        3.70923       -0.68180
S          3.08900       -1.00286        0.00677
O          4.34003       -1.70620       -0.17270
O          1.83232       -1.75574       -0.04153
O          3.03226        0.14386       -1.08575
H          2.10800        0.53638       -1.12085
C          3.12037       -0.10204        1.54109
H          3.21625       -0.83948        2.33933
H          3.98427        0.56221        1.52573
H          2.18706        0.45819        1.63934
N         -0.96323       -1.32185       -0.26749
C         -1.01329       -1.62581        1.18330
C         -0.96616       -2.52553       -1.12327
H         -1.77591       -0.69971       -0.53013
H         -0.19915       -2.31029        1.42122
H         -0.87433       -0.68867        1.72261
H         -1.98958       -2.06275        1.39792
H         -0.04053       -3.07522       -0.95342
H         -1.83036       -3.13857       -0.86286
H         -1.02255       -2.21608       -2.16772
H         -0.11128       -0.77738       -0.46610
H         -5.66998       -0.34266       -0.32234
H         -5.36595       -0.57521        1.39972
H         -4.37970        1.52030        0.53858
H         -3.16702        0.44907        1.24410
H         -3.66303        0.57720       -1.64714
H         -2.46627        1.36912       -0.86714
H         -4.90644       -2.61466        0.40393
H         -3.99744       -1.96521       -0.77980
C         -4.88274       -0.56260        0.41834
C         -3.85768        0.56385        0.40232
N         -4.25228       -1.86730        0.19812
N         -3.05842        0.53486       -0.83037
