30
1sa1msa1a1dma_137.log	Energy: -976473.0677568
S          1.12171       -1.49598       -0.10700
O         -0.07945       -2.05712        0.50586
O          2.18676       -2.37871       -0.52001
O          0.68341       -0.67077       -1.38434
O          1.67766       -0.41247        0.86689
H         -0.25640       -0.35255       -1.29094
H          2.73166       -0.33673        0.76733
S         -2.81784       -0.02271       -0.02120
O         -3.95519       -0.83510       -0.38965
O         -1.78357        0.21899       -1.03977
O         -2.11524       -0.57092        1.29099
H         -1.35921       -1.18120        1.06176
C         -3.37307        1.54857        0.58708
H         -3.88815        2.04004       -0.23895
H         -4.05849        1.36827        1.41504
H         -2.50490        2.12446        0.90650
N          4.22999       -0.38244        0.56403
H          4.57747        0.34036       -0.05878
H          4.38737       -1.28669        0.12359
H          4.76733       -0.34425        1.42458
N          1.60407        2.53316       -0.72889
C          0.33352        2.66617       -0.03732
C          2.73838        2.80150        0.13238
H          1.67179        1.60043       -1.12223
H          0.20024        3.70744        0.27833
H         -0.47828        2.41107       -0.72271
H          0.25315        2.02170        0.85715
H          2.71029        3.84790        0.45580
H          2.76780        2.17342        1.04245
H          3.66999        2.66170       -0.42631
