24
1sa1msa2a_29.log	Energy: -927173.2135834
S         -1.77896        0.14424        0.01389
O         -0.51063       -0.12946       -0.73218
O         -2.11967       -0.85370        1.02366
O         -1.73073        1.54462        0.52818
O         -2.89609        0.11320       -1.10819
H         -0.32654        2.14310        0.28337
H         -3.74395       -0.29860       -0.72481
S          2.60546       -0.31714       -0.00224
O          2.39572        0.42027        1.25240
O          2.67851        0.51790       -1.20101
O          1.53560       -1.44544       -0.16663
H          0.61279       -1.01764       -0.36553
C          4.06858       -1.30568        0.14294
H          4.90064       -0.61737        0.29282
H          3.95201       -1.96828        1.00003
H          4.19073       -1.86935       -0.78132
N          0.70063        2.40912        0.09090
H          0.96662        2.02723       -0.82174
H          1.30428        1.92657        0.77555
H          0.84807        3.41359        0.11656
N         -4.94876       -1.07888        0.10810
H         -4.36913       -1.39453        0.88411
H         -5.35689       -1.89028       -0.34300
H         -5.69898       -0.50476        0.47699
