33
1sa1msa1ma1dma_82.log	Energy: -1001155.3657540
S          1.61365        0.06489       -0.64662
O          0.22654       -0.15730       -1.17023
O          2.68134       -0.24204       -1.59062
O          1.69316        1.43657       -0.07138
O          1.72018       -0.95783        0.56514
H          0.17593        1.97307        0.18230
H          2.70339       -1.25142        0.65858
S         -2.69480       -0.98260        0.10524
O         -3.48562       -0.39582       -0.96549
O         -2.23282       -0.04960        1.15060
O         -1.48898       -1.80899       -0.44404
H         -0.70865       -1.18907       -0.74634
C         -3.61007       -2.28103        0.89516
H         -4.50102       -1.82477        1.32712
H         -3.88134       -3.01459        0.13640
H         -2.98237       -2.72378        1.66749
N          4.28622       -1.52626        0.57052
H          4.65513       -2.37134        0.99350
C          5.00521       -0.33336        1.03634
H          6.08128       -0.36708        0.83044
H          4.57882        0.54197        0.54157
H          4.85451       -0.22047        2.11246
H          4.37176       -1.61306       -0.43970
N         -0.84183        2.22384        0.32235
C         -1.43863        2.57237       -0.98645
C         -0.96655        3.27240        1.35187
H         -1.29819        1.35494        0.66123
H         -0.96613        3.48136       -1.36190
H         -1.25088        1.74497       -1.66996
H         -2.51247        2.72111       -0.86508
H         -0.46045        4.17580        1.00831
H         -2.02228        3.48238        1.53134
H         -0.49938        2.91811        2.27076
