41
1sa1msa1tma1eda_84.log	Energy: -1085214.9490570
S          1.77966       -1.71002       -0.20756
O          2.56468       -0.87619        0.73860
O          1.54008       -3.07879        0.26108
O          0.59255       -1.00240       -0.70362
O          2.72376       -1.85204       -1.53658
H          3.33530       -2.58342       -1.37912
S         -1.95717        1.66545       -0.42152
O         -2.40332        0.44720       -1.14235
O         -0.87782        2.41872       -1.08122
O         -1.62860        1.34481        1.01018
C         -3.37838        2.74703       -0.36990
H         -3.65289        2.98395       -1.39817
H         -4.19471        2.23024        0.13584
H         -3.10262        3.65252        0.17093
H          1.65993        3.53472        0.58560
H          1.91060        2.77023        2.17553
H          4.05637        3.23843        0.87872
H          3.86022        1.56303        1.40528
H          4.37936        2.26426       -1.13268
H          3.53582        0.90613       -0.76165
H          0.18875        1.54610        1.04658
H          1.02232        1.54177       -0.34857
C          2.01971        2.63933        1.09609
C          3.46975        2.32877        0.72105
N          1.15494        1.51635        0.66998
N          3.54668        1.91818       -0.67574
H          1.59285        0.59935        0.88453
N         -2.08895       -1.83034        0.36002
C         -3.54218       -1.60529        0.56019
H         -3.66848       -0.68532        1.13031
H         -4.01635       -1.49105       -0.41314
H         -3.95932       -2.45753        1.10123
C         -1.82602       -3.04939       -0.44701
H         -2.29241       -2.91971       -1.42389
H         -0.74913       -3.16934       -0.55667
H         -2.25551       -3.91100        0.06911
C         -1.37511       -1.85255        1.66351
H         -0.33967       -2.14098        1.49553
H         -1.43596       -0.85084        2.08988
H         -1.86153       -2.58518        2.31179
H         -1.75856       -1.01019       -0.19370
