38
1sa1msa1dma1eda_243.log	Energy: -1060546.8198032
S          2.01759        0.15853       -1.12731
O          2.56024        0.17310        0.24052
O          1.74606       -1.15287       -1.70970
O          0.87509        1.11037       -1.25629
O          3.21997        0.81152       -1.99777
H          3.06714        0.59417       -2.92748
S         -2.52407        0.64511       -0.54294
O         -3.56590        1.63832       -0.70009
O         -1.70260        0.70334        0.68047
O         -1.57675        0.67478       -1.79945
H         -0.59315        0.77818       -1.57092
C         -3.21540       -0.98322       -0.63927
H         -3.94463       -1.06735        0.16780
H         -3.70538       -1.08060       -1.60847
H         -2.39290       -1.70081       -0.52216
N          0.71921        1.60315        1.72922
C          0.89489        3.01066        1.30736
C          0.71010        1.39104        3.19372
H         -0.16475        1.24878        1.32208
H          1.83841        3.38678        1.70532
H          0.90959        3.03681        0.21819
H          0.06328        3.60328        1.69114
H          1.66975        1.70947        3.60410
H         -0.09635        1.98185        3.63145
H          0.53866        0.32554        3.36423
H          1.46697        1.02646        1.28759
H          1.50784       -1.90748        1.12556
H          1.25864       -3.02086        2.46059
H          1.00569       -4.21402        0.37184
H         -0.56500       -4.15563        1.18935
H          0.23096       -2.36245       -0.99868
H         -0.83689       -3.59074       -1.10236
H         -0.78191       -1.15619        1.47311
H         -0.89618       -2.09711        2.79304
C          0.74691       -2.50329        1.64148
C          0.18459       -3.54320        0.67088
N         -0.23432       -1.58371        2.21742
N         -0.46372       -2.89043       -0.46917
