39
1sa1msa1dma1tma_25.log	Energy: -1050483.3263902
S          2.87599       -0.33837        0.09963
O          3.08713        1.11758        0.28803
O          2.75304       -1.09773        1.34097
O          1.81375       -0.61324       -0.89384
O          4.20688       -0.87902       -0.66410
H          4.94830       -0.82077       -0.04629
S         -2.98317        0.11367        0.03491
O         -2.88446        1.55246       -0.27941
O         -2.47019       -0.25482        1.37339
O         -2.37033       -0.75378       -1.02992
C         -4.72534       -0.28473        0.01599
H         -5.21736        0.32099        0.77745
H         -5.11923       -0.05158       -0.97351
H         -4.84119       -1.34626        0.23595
N         -0.29549       -2.23414       -0.18963
C         -0.15949       -3.39922       -1.08490
C         -0.31825       -2.56966        1.25197
H          0.50570       -1.59804       -0.37999
H         -1.01138       -4.06562       -0.94146
H         -0.13869       -3.04564       -2.11577
H          0.76975       -3.92426       -0.85758
H         -1.08199       -3.32941        1.42608
H          0.66697       -2.92937        1.55103
H         -0.58642       -1.67090        1.80583
H         -1.16225       -1.68782       -0.45709
N          0.71533        2.39921       -0.09764
C          0.85363        3.86483        0.05867
H          1.36853        4.07343        0.99695
H          1.43590        4.25859       -0.77489
H         -0.14039        4.31578        0.06735
C          0.05488        2.03600       -1.38373
H          0.57464        2.54826       -2.19452
H          0.14650        0.95926       -1.51472
H         -0.99979        2.31101       -1.33315
C          0.01751        1.79472        1.07078
H         -0.04135        0.71808        0.92349
H          0.59685        2.01043        1.96881
H         -0.99672        2.18893        1.13163
H          1.67555        1.98137       -0.09078
