39
1sa1msa1dma1tma_81.log	Energy: -1050473.8433353
S          0.38498        2.18511       -0.10562
O         -0.58673        1.93795       -1.20492
O         -0.08983        1.75336        1.21061
O          1.73931        1.73861       -0.46308
O          0.45245        3.80185        0.04311
H          0.73569        4.17041       -0.80446
S         -2.52461       -0.80418       -0.04116
O         -1.15755       -1.32749        0.05105
O         -3.60379       -1.73292       -0.30582
O         -2.57908        0.30375       -1.16542
H         -1.78729        0.93450       -1.13515
C         -2.86193        0.10371        1.44978
H         -2.07665        0.85336        1.57559
H         -3.84571        0.56143        1.34667
H         -2.85622       -0.61524        2.27025
N          1.39910       -0.79523        1.55154
C          2.60255       -0.16840        2.09776
C          0.96299       -1.95069        2.33171
H          0.65774       -0.09306        1.54544
H          3.43867       -0.87619        2.05195
H          2.84418        0.71369        1.50161
H          2.47427        0.13555        3.14640
H          1.73554       -2.72794        2.30327
H          0.78276       -1.70103        3.38797
H          0.04394       -2.34900        1.89735
N          1.74230       -1.44534       -1.08802
C          0.96108       -0.82344       -2.18640
H         -0.09408       -1.02428       -2.01450
H          1.13544        0.25065       -2.17359
H          1.28801       -1.26109       -3.13394
C          3.18295       -1.12835       -1.21324
H          3.29296       -0.04400       -1.17730
H          3.71657       -1.57974       -0.37539
H          3.56676       -1.52588       -2.15619
C          1.49224       -2.90259       -1.01324
H          2.05016       -3.31453       -0.17096
H          0.42431       -3.05586       -0.85475
H          1.81559       -3.37865       -1.94225
H          1.46423       -1.06635       -0.10675
