30
1sa1msa1a1dma_60.log	Energy: -976497.3736583
S          0.58009        1.18790        0.22089
O          0.45294        0.12617       -0.83215
O          0.10441        0.68792        1.52040
O          1.94018        1.75287        0.23274
O         -0.35299        2.39432       -0.22592
H         -1.25960        2.03237       -0.37052
S         -2.94864       -0.40702       -0.26649
O         -4.13891       -1.03659       -0.79168
O         -2.68287        0.99781       -0.59876
O         -1.69963       -1.27753       -0.70904
H         -0.86299       -0.70715       -0.78563
C         -2.93259       -0.55826        1.50543
H         -3.78063        0.01598        1.88065
H         -3.04502       -1.61365        1.75362
H         -1.98756       -0.14991        1.86960
N          1.51747       -2.00379        1.23140
H          0.87929       -2.48847        0.60602
H          0.99022       -1.21442        1.61515
H          1.74069       -2.63726        1.99226
N          3.39552       -0.52131       -0.25377
C          3.34657       -0.87562       -1.68804
C          4.74125       -0.55371        0.34759
H          2.96937        0.42565       -0.12229
H          3.68350       -1.90588       -1.81764
H          2.31446       -0.76250       -2.02005
H          3.99340       -0.20095       -2.25125
H          5.16156       -1.55627        0.24864
H          5.38600        0.16609       -0.15901
H          4.65979       -0.29027        1.40247
H          2.74702       -1.16583        0.28981
