33
1sa1msa1ma1dma_111.log	Energy: -1001154.0448779
S          0.38403       -1.30681       -0.54083
O          0.27653       -0.68513        0.82102
O          0.02059       -0.33210       -1.58292
O          1.69578       -1.94830       -0.72336
O         -0.66282       -2.50213       -0.58549
H         -1.54579       -2.13272       -0.34667
S         -3.02620        0.34488        0.38234
O         -4.19283        0.86367        1.05976
O         -2.89794       -1.10560        0.19704
O         -1.74156        0.87278        1.14746
H         -0.96167        0.23026        1.04062
C         -2.88096        1.11145       -1.21589
H         -3.74675        0.79561       -1.79941
H         -2.88893        2.19213       -1.07300
H         -1.95098        0.76451       -1.67073
N          1.52447        1.96742       -0.26070
H          0.94677        1.40317       -0.88903
C          1.99725        3.18033       -0.93515
H          1.18555        3.82389       -1.29432
H          2.62106        3.76477       -0.25351
H          2.61074        2.89739       -1.79443
H          0.91763        2.20393        0.51983
N          3.26437       -0.05695        0.52391
C          3.22271       -0.24485        1.98871
C          4.61119        0.14578       -0.03899
H          2.80476       -0.87518        0.06486
H          3.60360        0.65342        2.47861
H          2.18386       -0.42331        2.26707
H          3.83488       -1.10518        2.26512
H          5.05761        1.04070        0.39873
H          5.23737       -0.72104        0.17902
H          4.52396        0.26902       -1.11894
H          2.63602        0.77443        0.25937
