38
1sa1msa1dma1eda_162.log	Energy: -1060549.1491246
S         -0.15035       -1.72292       -0.27571
O         -0.02587       -0.94560        0.97576
O         -0.24442       -0.81449       -1.46241
O          0.92332       -2.72451       -0.42359
O         -1.50532       -2.52361       -0.23189
H         -2.26309       -1.87552       -0.50994
S          0.82573        2.35715       -0.25372
O          1.00353        3.74403       -0.62428
O          2.03463        1.51787       -0.15890
O         -0.17417        1.70763       -1.28060
H         -0.14537        0.68315       -1.30116
C         -0.03655        2.25009        1.29334
H          0.61160        2.69028        2.05243
H         -0.96539        2.81239        1.20287
H         -0.24706        1.19869        1.49426
N          2.95800       -1.02108        0.26649
C          3.14361       -1.16200        1.72712
C          4.20337       -1.04987       -0.52601
H          2.30045       -1.77071       -0.05532
H          3.75532       -0.33527        2.09138
H          2.15514       -1.13841        2.18622
H          3.63277       -2.11443        1.93610
H          4.85087       -0.23160       -0.20824
H          4.70486       -2.00692       -0.37526
H          3.94914       -0.92619       -1.57841
H          2.47009       -0.11853        0.08946
H         -4.62561       -0.60353        1.06281
H         -4.56293        1.14441        1.29798
H         -4.34086        1.01738       -1.00025
H         -2.64028        1.05020       -0.51418
H         -4.18279       -1.31228       -1.31186
H         -2.85524       -0.67929       -2.02876
H         -3.07350       -0.00831        2.82016
H         -2.12577       -0.48945        1.57707
C         -3.96404        0.27861        0.99470
C         -3.56061        0.46082       -0.46651
N         -2.79940        0.21471        1.86995
N         -3.30384       -0.83509       -1.12858
