35
1sa1msa1ma1eda_02.log	Energy: -1035906.7041283
S         -1.06772        1.69887        0.66459
O         -0.71357        0.48006        1.66758
O         -2.47558        1.95479        0.90253
O         -0.10219        2.77237        0.91711
O         -0.80899        1.10567       -0.71356
H          1.89976        1.96974        0.03171
H         -1.22579       -0.49881       -0.80075
S          2.20025       -1.35078        0.12653
O          2.74639       -0.78692       -1.13534
O          1.12831       -2.35423       -0.08799
O          1.80309       -0.26802        1.07437
H          0.22844        0.20352        1.53372
C          3.53565       -2.22897        0.91391
H          3.87198       -3.01109        0.23319
H          4.33713       -1.51794        1.11399
H          3.15776       -2.65808        1.84184
N          1.81301        1.81381       -0.97610
H          2.36094        0.96141       -1.20520
C          2.15894        3.01992       -1.75027
H          1.99061        2.82465       -2.80900
H          1.51913        3.83706       -1.41780
H          3.20629        3.27324       -1.58622
H          0.80284        1.55502       -1.07931
H         -2.50870       -2.90412        0.39533
H         -2.04545       -1.39938        1.23828
H         -4.49155       -1.40047        0.65712
H         -3.60729       -0.08879       -0.11852
H         -4.62608       -2.49935       -1.42524
H         -4.66263       -0.94741       -1.93839
H         -0.48922       -1.97909       -0.56636
H         -1.80870       -1.82494       -1.65015
C         -2.41714       -1.81814        0.30277
C         -3.73729       -1.17561       -0.10684
N         -1.41264       -1.53432       -0.75253
N         -4.09899       -1.63341       -1.45153
