20
1sa1msa1a_03.log	Energy: -891674.2057090
S         -2.02786       -0.28789       -0.02807
O         -2.11965        0.60011       -1.19234
O         -1.14274       -1.46525       -0.21036
O         -1.74488        0.43457        1.22946
O         -3.50990       -0.91532        0.09912
H         -3.47574       -1.64862        0.72898
S          2.11391       -0.10907        0.08948
O          2.01157        0.02695        1.53103
O          1.70096        1.06705       -0.70276
O          1.38585       -1.38927       -0.44055
H          0.36627       -1.37820       -0.31782
C          3.77444       -0.52170       -0.37706
H          4.40558        0.31138       -0.06663
H          4.05478       -1.43522        0.14665
H          3.80946       -0.65791       -1.45732
N         -0.52601        2.51066       -0.02238
H         -1.16834        2.22002       -0.77857
H         -0.49855        3.51619        0.11217
H         -0.89679        1.99879        0.80354
H          0.41222        2.10966       -0.24332
