30
1sa1msa2ma_130.log	Energy: -976480.1142489
S         -1.26791       -0.76835       -0.27267
O         -0.33500       -0.19715       -1.25601
O         -2.44780       -1.43512       -0.86340
O         -0.51493       -1.93617        0.49573
O         -1.68458        0.23937        0.75098
H          0.39522       -1.63378        0.75587
H         -3.36504        0.04179        1.09129
S          2.92876       -0.43539        0.13475
O          4.14902       -1.19601       -0.01523
O          1.88694       -0.93933        1.04492
O          2.29116       -0.25318       -1.30568
H          1.29315       -0.21613       -1.26984
C          3.30620        1.22572        0.62140
H          3.77238        1.16660        1.60611
H          4.00630        1.63042       -0.11012
H          2.36432        1.79229        0.65583
N          0.34263        2.61556        0.61332
H         -0.29697        1.85085        0.81940
C          0.07593        3.14952       -0.72043
H         -0.92037        3.60241       -0.83990
H          0.82405        3.90809       -0.97160
H          0.16111        2.33880       -1.44746
H          0.20324        3.32792        1.32178
N         -4.26497       -0.35090        0.71723
H         -3.85344       -1.03907        0.03780
C         -5.04722        0.68894        0.01172
H         -5.91181        0.23320       -0.46964
H         -5.36841        1.45060        0.72144
H         -4.39849        1.13457       -0.74167
H         -4.79045       -0.82576        1.44695
