38
1sa1msa1dma1eda_304.log	Energy: -1060544.7123691
S          0.53365       -2.27592       -0.56707
O          1.76589       -1.70327       -1.18254
O         -0.64411       -1.40794       -0.85725
O          0.33418       -3.68727       -0.78850
O          0.74398       -2.12305        1.03978
H          1.02896       -1.20219        1.22053
S          2.24689        1.23574        0.39903
O          3.54550        1.09329        1.02613
O          1.09313        0.64685        1.11484
O          2.23122        0.73249       -1.07755
H          2.02855       -0.30171       -1.14567
C          1.91345        2.96146        0.13984
H          0.96013        3.06414       -0.37665
H          1.88378        3.43314        1.12242
H          2.72713        3.37243       -0.45756
N         -2.10032       -0.41825        1.17580
C         -3.26907       -1.28803        0.92683
C         -1.55949       -0.49740        2.54827
H         -1.37759       -0.70867        0.47362
H         -4.07933       -1.01437        1.60561
H         -3.57527       -1.15000       -0.11074
H         -2.98035       -2.32799        1.08380
H         -2.33618       -0.20638        3.25826
H         -1.23054       -1.51869        2.74246
H         -0.70647        0.17725        2.62099
H         -2.37132        0.57146        0.94320
H         -2.61169        3.44299       -1.35161
H         -1.42839        3.34706       -0.03989
H         -0.66043        2.20776       -2.15076
H         -0.67908        1.14419       -0.75237
H         -2.51741        1.04562       -2.98888
H         -1.76889       -0.15790       -2.15351
H         -3.59276        2.76598        0.78156
H         -3.74650        1.60072       -0.36717
C         -2.11255        2.75307       -0.65518
C         -1.32581        1.70067       -1.43689
N         -3.07925        2.08619        0.23025
N         -2.23365        0.74216       -2.06400
