36
1sa1msa1ma1tma_98.log	Energy: -1025806.5987569
S          1.22743        1.56433       -0.61078
O          2.52009        2.09858       -0.19577
O          1.32419        0.47298       -1.60897
O          0.31253        1.20639        0.49784
O          0.42698        2.77520       -1.34072
H          1.04169        3.22981       -1.93204
S         -2.85477       -0.05249        0.34384
O         -2.46527       -0.95909        1.41905
O         -2.58850       -0.49879       -1.02082
O         -2.25235        1.38509        0.58450
H         -1.24114        1.36805        0.52497
C         -4.57630        0.35080        0.50530
H         -4.74338        0.75798        1.50191
H         -4.83545        1.07414       -0.26701
H         -5.12852       -0.57923        0.36802
N          3.51913       -0.38431        1.35008
H          4.48256       -0.66254        1.50859
C          2.91823        0.07282        2.60789
H          3.47333        0.88179        3.10182
H          1.90911        0.44083        2.40415
H          2.84231       -0.76628        3.30759
H          3.54229        0.40010        0.70020
N          0.91643       -2.02404       -0.68917
C         -0.13798       -2.59352       -1.56337
H         -1.07998       -2.08357       -1.35509
H          0.14431       -2.42420       -2.60318
H         -0.22325       -3.66450       -1.36519
C          2.26194       -2.57361       -0.98862
H          2.50190       -2.36025       -2.03074
H          2.97346       -2.07813       -0.32372
H          2.25086       -3.65242       -0.81521
C          0.58861       -2.16469        0.75434
H          1.38157       -1.67576        1.31979
H         -0.37560       -1.69775        0.95546
H          0.54584       -3.23023        0.99411
H          0.97818       -1.00248       -0.92382
