35
1sa1msa1ma1eda_148.log	Energy: -1035884.7638119
S          0.78358       -0.33877        0.33250
O          0.96791       -1.69883       -0.15466
O         -0.53016       -0.08447        1.01338
O          1.84193       -0.05424        1.46643
O          0.98507        0.71299       -0.71279
H          2.74498       -0.52569        1.22592
H         -0.26975        1.70664       -0.69140
S         -3.56044       -0.43654       -0.31366
O         -3.31906       -0.81643       -1.69393
O         -3.43349        1.00277       -0.00313
O         -2.69634       -1.26559        0.68899
H         -1.74599       -0.85598        0.81266
C         -5.18312       -0.96155        0.17748
H         -5.89352       -0.43890       -0.46343
H         -5.24842       -2.03876        0.02539
H         -5.33290       -0.70144        1.22452
N         -1.07127        2.37938       -0.49148
H         -1.18154        3.01581       -1.27728
C         -0.78729        3.09537        0.77438
H         -1.60436        3.77918        1.00443
H         -0.69236        2.34017        1.55393
H          0.15145        3.63986        0.67468
H         -1.94422        1.82164       -0.39042
H          5.03286       -1.78040       -1.03412
H          3.28455       -1.47700       -1.14229
H          4.53239        0.40056       -2.13037
H          3.65109        0.92086       -0.69268
H          6.54099        0.45149       -0.85302
H          5.75099        1.77369       -0.30617
H          3.98385       -2.21884        1.07728
H          4.87690       -0.83459        1.22800
C          4.21280       -1.14333       -0.67150
C          4.49076        0.30909       -1.03584
N          4.05626       -1.24842        0.78816
N          5.71031        0.76328       -0.36077
