42
1sa1msa2tma_59.log	Energy: -1075124.3054742
S         -0.22166       -1.07474       -1.06894
O         -1.44940       -1.39390       -1.78969
O          0.72611       -0.19512       -1.77732
O         -0.51028       -0.54510        0.31045
O          0.50430       -2.48063       -0.84518
H         -2.02240       -0.76765        0.62401
H          1.36961       -2.30958       -0.40149
S          3.30914       -0.28324        0.53252
O          4.69965       -0.11312        0.88427
O          2.76659       -1.64323        0.42342
O          3.06411        0.48103       -0.83061
H          2.18401        0.21522       -1.23584
C          2.28705        0.60912        1.68448
H          2.44501        0.15697        2.66462
H          2.60634        1.65128        1.68236
H          1.24693        0.50046        1.36829
N         -1.06195        3.33462       -0.21708
C         -1.78805        2.77618       -1.34492
H         -2.86060        2.96669       -1.22302
H         -1.46507        3.26348       -2.26878
H         -1.62817        1.68912       -1.46585
C          0.37480        3.17755       -0.39221
H          0.69245        3.68834       -1.30532
H          0.89893        3.63702        0.45189
H          0.67752        2.12022       -0.47123
C         -1.50187        2.75062        1.03445
H         -0.98165        3.22751        1.87145
H         -2.57593        2.93070        1.16796
H         -1.30679        1.66160        1.08284
N         -3.05469       -0.95909        0.83361
C         -3.85216       -0.12901       -0.10282
H         -3.63587        0.92168        0.09161
H         -3.54742       -0.37953       -1.11920
H         -4.91467       -0.33129        0.05259
C         -3.26726       -2.40963        0.59470
H         -3.01398       -2.62054       -0.44424
H         -2.60228       -2.97358        1.24962
H         -4.30968       -2.65962        0.80600
C         -3.28940       -0.58776        2.24673
H         -2.63503       -1.18561        2.88186
H         -3.05728        0.46973        2.37757
H         -4.33444       -0.77559        2.50406
