40
1sa1msa2eda_179.log	Energy: -1095284.3090184
S          0.38690       -1.74370        0.21148
O         -0.68435       -2.69071        0.52832
O          1.72055       -2.34048        0.00993
O          0.02269       -0.79117       -0.86702
O          0.50648       -0.84252        1.56096
H         -2.18937       -0.65705       -1.14677
H          1.23274       -0.18944        1.41436
S          3.41760        0.70154       -0.25486
O          4.63269        1.47937       -0.18167
O          2.38085        0.92625        0.76579
O          3.82368       -0.82303       -0.25593
H          3.02386       -1.42841       -0.14579
C          2.65336        0.92443       -1.84577
H          2.40438        1.98289       -1.93436
H          3.37704        0.63639       -2.60803
H          1.75464        0.30365       -1.88028
H         -4.68213        0.90668        0.04072
H         -5.66881        0.39388       -1.32889
H         -4.75213       -1.52723        0.05434
H         -4.32207       -1.60296       -1.67412
H         -2.57189       -0.44763        0.47899
H         -2.35284       -1.96863       -0.18233
H         -4.25390        1.76028       -2.44853
H         -2.98286        1.54311       -1.40943
C         -4.64599        0.41063       -0.94208
C         -4.19592       -1.03702       -0.74874
N         -3.76236        1.07878       -1.88570
N         -2.76234       -1.04656       -0.39172
H         -0.11158        2.15433        1.45937
H         -1.16339        3.49202        1.00428
H         -2.11115        2.30487        2.87099
H         -3.16827        2.18311        1.45224
H         -1.26135        0.03742        2.12444
H         -2.80058        0.06373        2.67840
H         -0.68480        2.57223       -0.99527
H         -0.67685        1.03668       -0.48240
C         -1.08009        2.40065        1.00028
C         -2.20758        1.86007        1.87107
N         -1.17110        1.92497       -0.38340
N         -2.20052        0.39003        1.92660
