28
1sa1msa1eda_170.log	Energy: -975709.0050172
S          2.37093       -0.49398        0.08821
O          3.75809       -0.82718        0.24348
O          1.46546       -0.46339        1.22360
O          2.25126        0.99564       -0.51884
O          1.78466       -1.39337       -1.04903
H          2.97671        1.14461       -1.14320
H          0.78400       -1.28547       -1.10936
S         -1.76665       -1.45070       -0.09612
O         -2.40056       -2.71210       -0.39044
O         -0.75820       -0.92415       -1.04324
O         -1.06003       -1.57886        1.32421
H         -0.22486       -1.05683        1.34979
C         -2.97307       -0.18177        0.14949
H         -3.44451        0.00705       -0.81531
H         -3.69422       -0.55641        0.87632
H         -2.43596        0.70136        0.50722
H          0.62582        3.08886       -0.67722
H         -0.69052        4.21798       -1.01787
H         -0.40117        3.96541        1.36999
H         -1.98739        3.34611        0.86947
H          0.33569        1.60527        1.34852
H         -0.91600        1.80669        2.36915
H         -1.02662        2.40848       -2.43623
H         -0.86747        1.29873       -1.25101
C         -0.46937        3.21543       -0.63687
C         -0.90909        3.15753        0.82030
N         -1.19042        2.24157       -1.44979
N         -0.65502        1.83031        1.38847
