36
1sa1msa2dma_167.log	Energy: -1025806.2447349
S          2.44260       -0.73122       -0.43828
O          2.63393        0.67182       -0.02676
O          3.62544       -1.56891       -0.50130
O          1.30283       -1.32031        0.33374
O          1.87627       -0.62643       -1.96652
H          2.33015       -1.30133       -2.48818
S         -2.09898       -1.25406        0.02068
O         -2.66671       -0.63671       -1.16236
O         -1.66709       -0.35722        1.10642
O         -0.92738       -2.22533       -0.35310
H          0.00560       -1.84916       -0.12909
C         -3.27047       -2.40838        0.69127
H         -4.16355       -1.84266        0.95827
H         -3.49813       -3.14304       -0.08100
H         -2.82909       -2.88289        1.56689
N          0.58255        1.19239        1.73252
C          1.04314        0.48408        2.94744
C          0.21192        2.60909        1.94840
H          1.33687        1.11858        1.01272
H          0.25034        0.50965        3.69630
H          1.27266       -0.54463        2.67188
H          1.93726        0.97877        3.32898
H         -0.57652        2.65603        2.70179
H          1.09171        3.15160        2.29883
H         -0.14304        3.01495        0.99348
H         -0.22536        0.67140        1.35010
N         -0.79553        3.03533       -1.12520
C         -2.24476        2.88421       -1.18758
C         -0.08878        1.91731       -1.74194
H         -0.52558        3.89610       -1.58979
H         -2.53842        1.99877       -0.61613
H         -2.72615        3.76074       -0.74395
H         -2.62762        2.75095       -2.21259
H         -0.33215        0.99553       -1.20525
H         -0.36132        1.74929       -2.79570
H          0.99059        2.06864       -1.67370
