38
1sa1msa1dma1eda_76.log	Energy: -1060563.6199699
S          2.97137       -0.01308       -0.16578
O          3.54589       -1.32435        0.13046
O          1.83690       -0.04821       -1.13048
O          2.66395        0.82063        1.00552
O          4.09183        0.80266       -1.03314
H          4.94199        0.69082       -0.58718
S         -3.06464        0.09944       -0.19553
O         -2.85982       -0.02116        1.26134
O         -2.58044       -1.09270       -0.95526
O         -2.51762        1.36701       -0.76058
C         -4.82247        0.16176       -0.48259
H         -5.26113       -0.75773       -0.09498
H         -5.21847        1.02963        0.04486
H         -4.99079        0.25165       -1.55561
N         -0.01459        1.87888        0.15711
C         -0.23161        2.32380        1.55011
C          0.77632        2.81998       -0.66362
H          0.46010        0.96231        0.17691
H         -0.65352        3.32984        1.53779
H         -0.94407        1.64241        2.01685
H          0.72645        2.31427        2.07113
H          0.22739        3.75888       -0.75128
H          1.74175        2.97711       -0.18249
H          0.93286        2.37363       -1.64424
H         -0.95323        1.70989       -0.27830
H         -1.13255       -3.20774        0.20716
H          0.47819       -3.83708       -0.21120
H          0.31346       -2.95120        2.13503
H          1.60435       -2.22659        1.16526
H         -0.97498       -0.89746        1.70832
H          0.55571       -0.44836        2.16249
H         -0.97377       -1.46808       -1.10850
H          0.72797       -1.31448       -1.07043
C         -0.08561       -2.93848        0.04700
C          0.51849       -2.28390        1.28473
N         -0.06585       -1.99965       -1.11348
N          0.01171       -0.92832        1.45352
H         -0.01041       -2.49989       -1.99742
