33
1sa1msa1ma1dma_59.log	Energy: -1001155.7577341
S         -0.94441       -1.61673        0.19692
O         -0.15285       -1.08581        1.34555
O         -2.32892       -1.91092        0.56702
O         -0.74884       -0.81438       -1.01509
O         -0.24748       -3.03632       -0.19258
H         -0.45897       -3.67790        0.49936
S          2.70835        0.32506       -0.17293
O          4.08746        0.73967       -0.03613
O          1.67009        1.35748       -0.27320
O          2.37913       -0.61817        1.05165
H          1.38884       -0.79693        1.14865
C          2.54352       -0.74764       -1.58216
H          2.82142       -0.16303       -2.46025
H          3.22560       -1.58679       -1.44728
H          1.50398       -1.07485       -1.64821
N         -3.51898        0.76872        0.05447
H         -3.39378       -0.17068        0.43785
C         -3.78793        0.65935       -1.38713
H         -4.69193        0.08355       -1.61571
H         -3.89565        1.65886       -1.81921
H         -2.93470        0.16446       -1.85682
H         -4.30578        1.19281        0.53560
N         -0.97329        1.86497        0.30568
C         -0.65463        2.06999        1.73472
C         -0.88607        3.09025       -0.51184
H         -0.30923        1.17770       -0.07780
H         -1.36974        2.77711        2.15978
H         -0.72267        1.10430        2.23568
H          0.36178        2.45581        1.81935
H         -1.61002        3.81953       -0.14317
H          0.12571        3.49167       -0.44763
H         -1.11173        2.83607       -1.54787
H         -1.95830        1.45504        0.22345
