33
1sa1msa1a1tma_12.log	Energy: -1001163.9816535
S          2.96216       -0.39719       -0.04841
O          2.89335       -1.83917        0.29101
O          4.20117        0.02676       -0.67983
O          1.70690        0.07235       -0.67321
O          2.89907        0.39335        1.39893
H          3.76915        0.31987        1.81233
S         -2.51197       -0.84217        0.17690
O         -2.77955        0.15899        1.22178
O         -2.01705       -2.15094        0.67454
O         -1.60838       -0.30286       -0.90034
C         -4.06801       -1.18225       -0.62879
H         -4.75282       -1.57901        0.12115
H         -4.45290       -0.24990       -1.04265
H         -3.89852       -1.91381       -1.41892
N          0.39346       -2.43121       -0.57631
H          0.37323       -3.15067       -1.29250
H          0.32047       -1.49795       -1.00460
H         -0.43569       -2.51429        0.05151
H          1.31611       -2.42684       -0.08211
N         -0.63502        2.15040       -0.16562
C         -1.92670        2.88131       -0.16087
H         -2.33911        2.87044       -1.17062
H         -2.60478        2.36718        0.52061
H         -1.75055        3.91033        0.16012
C         -0.07120        2.04408        1.20793
H         -0.79305        1.50526        1.82285
H          0.86920        1.49693        1.15861
H          0.09251        3.05217        1.59635
C          0.33295        2.74399       -1.12293
H          1.22175        2.11353       -1.14210
H         -0.12774        2.77012       -2.11133
H          0.57188        3.75873       -0.79652
H         -0.85761        1.17259       -0.47961
