30
1sa1msa2ma_96.log	Energy: -976491.6298069
S          1.87132       -1.25926        0.13862
O          2.44053       -2.58704        0.26119
O          2.77832       -0.11390        0.15056
O          0.84171       -1.10014       -0.93803
O          0.92594       -1.07625        1.50438
H          1.26533       -1.70396        2.15634
S         -2.45454       -0.28657       -0.31035
O         -3.81994       -0.30176       -0.78558
O         -1.64081        0.91637       -0.51177
O         -1.71474       -1.52859       -0.95056
H         -0.71420       -1.43279       -0.90799
C         -2.42791       -0.66283        1.42876
H         -2.92656        0.15718        1.94729
H         -2.96715       -1.59799        1.57939
H         -1.38497       -0.75456        1.73646
N          0.89089        2.11588        1.35104
H          0.87218        1.13312        1.61992
C         -0.25852        2.83187        1.91432
H         -0.34313        2.73635        3.00389
H         -0.18257        3.89420        1.66862
H         -1.16842        2.44327        1.45097
H          1.76801        2.48354        1.70656
N          0.83494        1.65878       -1.37962
H          0.80027        0.62119       -1.37177
H         -0.05497        1.97834       -1.75870
C          2.02019        2.15496       -2.10376
H          2.07107        3.24134       -2.02155
H          2.89954        1.70310       -1.64496
H          1.96330        1.86678       -3.15370
H          0.86224        1.92792       -0.34027
