30
1sa1msa1a1dma_02.log	Energy: -976511.2954265
S         -2.14546       -0.85858       -0.23512
O         -1.23149       -0.28496       -1.44109
O         -1.56639       -0.16364        0.99548
O         -3.48401       -0.40929       -0.54872
O         -1.88470       -2.29951       -0.13810
H         -0.06536       -2.62425        0.93810
S          2.25128       -0.19113       -0.22417
O          2.39852       -0.55122        1.21418
O          1.95069        1.24836       -0.43483
O          1.28403       -1.09250       -0.90731
H         -0.30772       -0.62921       -1.34420
C          3.83623       -0.47333       -0.98421
H          4.56588        0.17207       -0.49530
H          4.09375       -1.52361       -0.84801
H          3.74971       -0.23089       -2.04332
N          0.18210       -2.06715        1.76386
H          1.13017       -1.64062        1.64976
H          0.09737       -2.62064        2.61043
H         -0.51961       -1.28516        1.73014
N         -0.50951        2.20989        0.27173
C         -0.19173        3.04217        1.44843
C         -1.35579        2.86792       -0.74680
H          0.38954        1.88112       -0.14478
H         -1.11561        3.30297        1.96693
H          0.45963        2.46963        2.10909
H          0.32415        3.94760        1.12513
H         -2.30640        3.14891       -0.29133
H         -0.84358        3.75320       -1.12727
H         -1.53486        2.15176       -1.54828
H         -0.98380        1.32478        0.59098
