40
1sa1msa2eda_176.log	Energy: -1095282.9307440
S         -0.60192       -1.72634        0.00295
O         -1.48324       -2.82396        0.33084
O          0.79581       -2.25748       -0.36600
O         -1.06593       -1.05361       -1.34933
O         -0.49621       -0.65540        1.00916
H         -2.07864       -0.81517       -1.30181
H          0.31157        0.87677        0.83780
S          3.53982        0.01080        0.23689
O          3.79354       -0.96232        1.29220
O          3.35106        1.42020        0.69271
O          2.38403       -0.36928       -0.66573
H          1.51179       -1.49715       -0.44501
C          4.96216        0.04346       -0.83869
H          5.10532       -0.96059       -1.23851
H          4.77874        0.75897       -1.64006
H          5.82273        0.34482       -0.24080
H         -5.38418       -0.84609       -0.15378
H         -4.02078       -1.95463        0.11111
H         -4.34109       -0.52238        2.05534
H         -2.77322       -0.20895        1.30912
H         -5.14294        1.49666        1.01512
H         -3.73542        1.85940        1.74254
H         -4.03157       -0.83950       -2.08888
H         -3.74487        0.58313       -1.32281
C         -4.29176       -0.90721       -0.04422
C         -3.85156       -0.09842        1.16802
N         -3.61229       -0.42517       -1.26120
N         -4.14056        1.33097        0.97591
H          0.92899        3.07997       -1.02895
H          0.80825        1.34565       -1.40329
H         -1.30936        2.53435       -2.02144
H         -1.56630        1.33475       -0.75354
H         -1.55884        4.22207       -0.36577
H         -2.62021        3.07617        0.15292
H          1.73669        1.77788        0.78172
H          0.22842        2.50157        1.22370
C          0.40136        2.15202       -0.79130
C         -1.10241        2.29915       -0.96838
N          0.69568        1.81924        0.62305
N         -1.63866        3.27237       -0.01854
