39
1sa1msa1dma1tma_51.log	Energy: -1050473.2982869
S          1.23084        0.09165       -0.54671
O          1.69651        0.90181        0.59400
O          0.77377       -1.26182       -0.10979
O          0.20334        0.77541       -1.36829
O          2.44937       -0.13108       -1.51954
H          3.25122       -0.51615       -0.97938
S         -2.69800       -1.36094        0.13106
O         -3.02916       -0.13925       -0.60416
O         -2.45800       -1.20483        1.56245
O         -1.52869       -2.13571       -0.56084
H         -0.58842       -1.72985       -0.38400
C         -3.99945       -2.54439       -0.12473
H         -4.90488       -2.11720        0.30729
H         -4.11884       -2.70138       -1.19628
H         -3.72813       -3.46976        0.38223
N          4.43245       -1.02104       -0.06330
C          3.88908       -1.97369        0.91195
C          5.00920        0.16715        0.57250
H          5.13969       -1.48356       -0.62704
H          3.07233       -1.49239        1.45464
H          3.47401       -2.83588        0.38690
H          4.65024       -2.31035        1.62955
H          4.20330        0.71043        1.07279
H          5.78663       -0.08800        1.30614
H          5.43677        0.81813       -0.19366
N         -1.13908        2.50931        0.14543
C         -0.11003        3.57732        0.09847
H          0.82915        3.15351        0.45656
H          0.00929        3.90333       -0.93514
H         -0.43123        4.41216        0.72599
C         -2.43524        2.94875       -0.42164
H         -2.27243        3.28456       -1.44640
H         -3.11418        2.09661       -0.41899
H         -2.82880        3.76887        0.18397
C         -1.28662        1.96234        1.52042
H         -2.01126        1.14891        1.50479
H         -0.31586        1.57786        1.83590
H         -1.62153        2.76456        2.18287
H         -0.75482        1.73497       -0.46566
