38
1sa1msa1dma1eda_21.log	Energy: -1060563.2700518
S          2.72875        0.55929        0.03338
O          3.57115       -0.53976       -0.42950
O          1.89867        1.17087       -1.03440
O          1.93087        0.28745        1.24663
O          3.74019        1.73738        0.53638
H          4.51588        1.71661       -0.03969
S         -2.96765       -0.22251       -0.07018
O         -2.80964       -1.41215       -0.91706
O         -2.78449        1.07444       -0.78670
O         -2.10380       -0.26923        1.15525
C         -4.65069       -0.20608        0.52094
H         -5.30967       -0.13329       -0.34451
H         -4.82793       -1.13680        1.06011
H         -4.77941        0.65331        1.17884
N         -0.45369        2.33798       -0.25826
C         -0.41282        2.57886        1.20124
C         -0.42614        3.56846       -1.07415
H          0.37791        1.76645       -0.52675
H         -1.23320        3.24568        1.47215
H         -0.53405        1.62177        1.70536
H          0.54729        3.02425        1.46465
H         -1.29644        4.18003       -0.83128
H          0.49333        4.11708       -0.86474
H         -0.45473        3.29050       -2.12758
H         -1.32610        1.79647       -0.48690
H         -0.63282       -2.45526       -0.96427
H          0.56782       -1.16403       -1.10957
H          1.54518       -3.38280       -1.77978
H          2.38588       -2.66326       -0.40708
H          0.48534       -4.89560       -0.27311
H          1.98203       -4.78027        0.37909
H         -0.78074       -1.30492        1.03044
H          0.20598       -2.66905        1.36558
C          0.32428       -2.09013       -0.58495
C          1.44137       -3.11796       -0.72030
N          0.13817       -1.77978        0.85855
N          1.14556       -4.25530        0.15535
H          0.88103       -1.12648        1.17674
