26
1sa1msa1dma_20.log	Energy: -940997.8628539
S          2.16270       -0.83709       -0.14126
O          2.08011       -1.97463       -1.03944
O          2.68109        0.43444       -0.63412
O          0.85841       -0.58315        0.59582
O          3.19720       -1.25658        1.04296
H          3.18180       -2.22015        1.11457
S         -2.38031       -0.32875       -0.00097
O         -2.15955       -0.02876       -1.40884
O         -2.22924        0.80087        0.92786
O         -1.49270       -1.53859        0.46952
H         -0.50440       -1.27999        0.47924
C         -3.98376       -1.05060        0.22385
H         -4.71182       -0.30370       -0.09342
H         -4.04581       -1.94169       -0.40021
H         -4.10933       -1.29382        1.27826
N          0.22709        2.03261        0.17585
C          1.12145        2.89716        0.97472
C          0.21867        2.33443       -1.27665
H          0.53166        1.03793        0.31268
H          0.83233        3.94139        0.84624
H          1.04124        2.61086        2.02338
H          2.14203        2.73481        0.62684
H         -0.09401        3.36949       -1.42451
H          1.22532        2.16961       -1.66013
H         -0.48245        1.65256       -1.75945
H         -0.73499        2.03299        0.53947
