40
1sa1msa2eda_158.log	Energy: -1095281.7505619
S         -0.90059       -0.81925       -0.19303
O          0.44594       -0.69249       -0.83929
O         -1.10955       -2.06798        0.53160
O         -1.16364        0.40352        0.62555
O         -1.90165       -0.76559       -1.41193
H          0.22275        1.24263        0.87728
H         -2.81993       -1.15192       -1.11167
S          3.59538       -0.79478        0.07569
O          3.14325       -0.12481        1.30877
O          3.94009        0.08447       -1.03258
O          2.57023       -1.89290       -0.34947
H          1.63322       -1.47991       -0.54682
C          4.98057       -1.82381        0.48824
H          4.67940       -2.50767        1.28092
H          5.28015       -2.36526       -0.40868
H          5.77733       -1.16021        0.82490
H         -5.21748       -1.69285        1.32679
H         -3.46901       -1.38018        1.40053
H         -4.71293        0.71150        1.74855
H         -3.78276        0.77605        0.24996
H         -6.68448        0.39729        0.44942
H         -5.85762        1.49412       -0.43743
H         -4.09047       -2.73976       -0.52219
H         -4.97534       -1.46967       -1.10824
C         -4.37666       -1.19634        0.81979
C         -4.64225        0.30053        0.73137
N         -4.17334       -1.72818       -0.53634
N         -5.83489        0.54494       -0.08521
H          2.37081        2.70631       -0.56125
H          1.25710        1.48074       -1.20573
H          0.45048        3.79121       -1.77650
H         -0.68070        2.93749       -0.71837
H          1.13824        5.08326        0.09481
H         -0.46112        4.92358        0.39410
H          1.89241        1.13125        1.13858
H          1.06347        2.57232        1.50296
C          1.35229        2.31320       -0.50786
C          0.31249        3.39504       -0.76262
N          1.13332        1.77901        0.86042
N          0.40544        4.40975        0.29121
