23
1sa1msa1ma_75.log	Energy: -916309.8822313
S          2.04696       -0.63559       -0.03278
O          3.45471       -0.38288        0.05293
O          1.21927        0.03933       -1.02135
O          1.79349       -2.19431       -0.33928
O          1.43085       -0.44679        1.39598
H          2.44546       -2.72433        0.14321
H          0.43457       -0.50624        1.34758
S         -2.15593       -0.24046        0.09159
O         -2.93619        0.90626        0.49108
O         -1.14455       -0.76790        1.02226
O         -1.44981        0.03354       -1.30490
H         -0.46205        0.04108       -1.21686
C         -3.23780       -1.57735       -0.34243
H         -3.79486       -1.83909        0.55782
H         -3.91238       -1.22452       -1.12250
H         -2.63371       -2.41515       -0.68856
N          1.27019        3.13822       -0.26931
H          1.31683        4.01446       -0.77649
C         -0.05588        2.93763        0.30482
H         -0.87530        2.84957       -0.42349
H         -0.04990        2.03195        0.91953
H         -0.29133        3.76665        0.97779
H          1.49464        2.39518       -0.92190
