32
1sa1msa1a1eda_296.log	Energy: -1011222.9123447
S         -0.26430        1.01830       -0.44189
O          1.00067        1.61243       -0.92026
O         -1.45472        1.45635       -1.19033
O         -0.16937       -0.55551       -0.77614
O         -0.44119        1.13358        1.02432
H          0.72540       -0.87763       -0.50518
H         -2.15339        1.58376        1.39036
S          3.56885       -0.50384        0.07236
O          4.53477       -0.85723       -0.94677
O          2.28772       -1.22669        0.09047
O          3.28939        1.04592        0.07654
H          2.38128        1.27995       -0.31972
C          4.31580       -0.69033        1.67348
H          4.56573       -1.74545        1.78782
H          5.21595       -0.07638        1.70175
H          3.59648       -0.37371        2.42776
N         -3.07914        1.82418        0.97826
H         -3.44939        2.68315        1.37292
H         -3.75635        0.99333        1.08324
H         -2.82313        1.94295       -0.01806
H         -5.48190       -1.95024       -0.11102
H         -5.47180       -0.30610       -0.77072
H         -3.74861       -1.77640       -1.83930
H         -3.02939       -0.37567       -1.06021
H         -2.84075       -3.11826       -0.15373
H         -1.73871       -1.89712       -0.12219
H         -5.47517       -0.45876        1.72208
H         -3.96303       -1.10175        1.59671
C         -4.89405       -1.02397       -0.17903
C         -3.55609       -1.31415       -0.86196
N         -4.63107       -0.46247        1.15800
N         -2.71812       -2.12702        0.01696
