40
1sa1msa2eda_277.log	Energy: -1095273.1409562
S         -0.44564       -1.85296        0.73515
O          0.52180       -2.77805        1.31755
O         -1.04123       -0.88223        1.68099
O          0.12124       -1.13826       -0.46001
O         -1.63750       -2.75596        0.18729
H          1.71571       -1.34483       -0.32380
H         -2.36955       -2.15580       -0.08938
S         -3.13786        0.66457       -0.62487
O         -4.24419        1.57628       -0.80624
O         -3.40608       -0.77529       -0.53542
O         -2.33931        1.11781        0.66551
H         -1.85096        0.33770        1.08448
C         -1.95311        0.90828       -1.92972
H         -2.44030        0.61363       -2.86015
H         -1.68833        1.96554       -1.95360
H         -1.08980        0.27472       -1.71592
H          0.13872        2.58983       -0.12364
H          0.99511        1.10713       -0.54568
H          0.49559        1.07090        1.81636
H          2.24772        1.23649        1.60657
H          0.42668        3.40654        2.32895
H          1.71523        2.85751        3.16228
H          2.04100        3.22540       -1.40715
H          2.41327        3.57275        0.14817
C          1.09122        2.05169       -0.00121
C          1.28718        1.75043        1.47835
N          2.24443        2.80866       -0.50459
N          1.35588        3.00923        2.22682
H          4.51860       -2.14848       -1.00762
H          3.09322       -2.18930       -2.07528
H          4.60303       -0.13940       -2.44324
H          2.93082        0.25926       -2.05051
H          5.22299        0.69867       -0.36140
H          3.74726        1.48034       -0.42446
H          2.61593       -2.50116        0.42151
H          3.10527       -0.88675        0.53274
C          3.58915       -1.63894       -1.27396
C          3.85280       -0.17299       -1.64528
N          2.71229       -1.61801       -0.08283
N          4.22276        0.56846       -0.44656
