28
1sa1msa1eda_138.log	Energy: -975721.8234167
S         -1.38062        1.76976        0.06414
O         -2.21891        1.01913        1.00638
O         -0.40867        2.68019        0.66763
O         -0.80630        0.88180       -0.98984
O         -2.38553        2.70648       -0.82216
H         -2.57619        3.49571       -0.29831
S          2.91157       -0.42537       -0.09539
O          1.88053       -1.32455        0.41007
O          3.62581       -0.77328       -1.31125
O          4.01028       -0.29513        1.08994
H          4.88013       -0.49123        0.71284
C          2.26961        1.21873       -0.17911
H          1.45459        1.20904       -0.90755
H          1.86263        1.49517        0.79394
H          3.07762        1.88310       -0.48396
H         -1.32817       -2.96311        1.26953
H         -1.48686       -1.21144        1.60785
H         -3.73582       -2.28929        1.29520
H         -3.39014       -1.01974        0.12017
H         -3.40221       -3.90327       -0.39980
H         -4.02567       -2.68874       -1.30022
H          0.17840       -1.83061       -0.15236
H         -1.16312       -2.29967       -1.08576
C         -1.65190       -1.99737        0.87086
C         -3.11118       -2.02993        0.43196
N         -0.82544       -1.69828       -0.32619
N         -3.25051       -2.94738       -0.70240
H         -0.92543       -0.68228       -0.61979
