32
1sa1msa1a1eda_261.log	Energy: -1011223.9830391
S         -0.58055       -2.32697       -0.15414
O          0.85249       -2.10864        0.20343
O         -1.50683       -2.16744        0.95174
O         -0.93560       -1.58467       -1.38706
O         -0.67826       -3.89678       -0.53558
H         -0.04271       -4.08158       -1.24026
S          2.28936        1.04148       -0.04079
O          2.43102        0.84917        1.39425
O          1.16548        1.87707       -0.49234
O          2.27775       -0.32292       -0.80522
H          1.66538       -1.04821       -0.37665
C          3.77832        1.74351       -0.70404
H          3.88855        2.73200       -0.25740
H          4.61031        1.09696       -0.42697
H          3.67456        1.81514       -1.78623
N         -0.40930        0.20817        2.68727
H          0.57568        0.35548        2.47757
H         -0.62208       -0.76624        2.48178
H         -0.53096        0.34659        3.68484
H         -3.23984        0.43011        0.11084
H         -1.88199        0.82999        1.20087
H         -3.64836        2.63331        1.20669
H         -2.08517        3.22268        0.63752
H         -4.39490        2.62250       -1.06187
H         -3.49585        3.98689       -1.00537
H         -1.33414        0.03932       -1.14561
H         -1.89088        1.57668       -1.63007
C         -2.42215        1.13162        0.29587
C         -2.92408        2.56567        0.38539
N         -1.48843        1.03338       -0.85831
N         -3.45579        2.97881       -0.91666
H         -0.55488        1.42263       -0.63392
