35
1sa1msa1ma1eda_201.log	Energy: -1035885.9679649
S          0.33160       -1.76584       -0.10730
O          0.18573       -0.78936       -1.23954
O         -0.03524       -1.15453        1.17886
O         -0.65018       -2.95949       -0.39269
O          1.69249       -2.35313       -0.13584
H         -1.61914       -2.58377       -0.37638
H          2.71448       -1.23505       -0.66251
S         -1.32747        2.18083       -0.22999
O         -2.29886        3.20218       -0.56496
O          0.09726        2.44954       -0.40543
O         -1.70831        0.87921       -1.05725
H         -0.91060        0.23927       -1.13978
C         -1.58655        1.66247        1.45324
H         -1.29288        2.49428        2.09507
H         -2.64704        1.44269        1.58025
H         -0.97286        0.77669        1.63322
N         -3.02901       -1.85063       -0.24285
H         -2.91471       -0.91512       -0.63219
C         -3.36534       -1.76415        1.18585
H         -4.26433       -1.16828        1.38187
H         -3.51749       -2.77087        1.58128
H         -2.51318       -1.32729        1.71046
H         -3.77255       -2.30278       -0.76573
H          3.46952        1.62967       -1.14199
H          1.82217        0.92837       -1.18372
H          2.30065        2.09402        0.99308
H          1.92682        0.38589        1.19498
H          4.54891        1.62076        1.51028
H          3.86389        0.39971        2.35546
H          3.71205       -0.60269       -1.87618
H          4.19259       -0.52259       -0.26186
C          2.79693        0.88901       -0.70051
C          2.67546        1.08349        0.80722
N          3.40106       -0.45957       -0.91879
N          3.97388        0.78979        1.42750
