40
1sa1msa2eda_200.log	Energy: -1095278.0136928
S          0.10375       -1.44202       -0.94964
O          1.38300       -2.18981       -0.92397
O         -1.07807       -2.25108       -1.20812
O         -0.12220       -0.90964        0.57402
O          0.20223       -0.20769       -1.76940
H          0.69753       -0.43497        0.84644
H         -1.08405        0.80973       -1.42375
S          3.53735       -0.06574        0.77417
O          4.13424       -0.66051        1.95273
O          2.17866        0.49352        0.90884
O          3.57902       -1.04084       -0.45075
H          2.67536       -1.50008       -0.64998
C          4.59946        1.22701        0.17595
H          4.66643        1.97849        0.96311
H          5.57850        0.79065       -0.02136
H          4.16463        1.64227       -0.73244
H         -2.30738        2.59054        0.61570
H         -1.20155        1.22884        0.92688
H          0.06377        3.38332        0.88497
H          0.56111        2.29636       -0.40984
H         -1.03258        4.72759       -0.70869
H          0.18608        4.16659       -1.64325
H         -2.68564        0.67348       -0.89352
H         -2.10591        2.10316       -1.72233
C         -1.45971        2.02057        0.22249
C         -0.26350        2.92265       -0.05556
N         -1.88335        1.37598       -1.04081
N         -0.61990        3.88737       -1.09813
H         -3.81839       -2.11962        1.03464
H         -2.48576       -0.98130        1.19044
H         -4.28980       -0.35631        2.72848
H         -4.12605        0.88783        1.48126
H         -6.19996       -1.18253        1.50327
H         -6.40628        0.43562        1.57808
H         -3.04038       -1.42372       -1.09519
H         -4.55180       -0.76467       -0.87522
C         -3.52260       -1.07555        0.85552
C         -4.42845       -0.15182        1.65637
N         -3.58159       -0.73452       -0.57158
N         -5.81256       -0.29395        1.20114
