28
1sa1msa1eda_182.log	Energy: -975703.4099922
S         -1.44241       -1.60843        0.03560
O         -2.82172       -1.21258       -0.06253
O         -0.61303       -1.17984        1.14663
O         -1.36242       -3.20849        0.08649
O         -0.75364       -1.24890       -1.32379
H         -2.07879       -3.58053       -0.44940
H          0.24013       -1.14731       -1.22582
S          2.41954        0.10948       -0.09876
O          2.36574        1.47368       -0.57189
O          1.80871       -0.94300       -0.93122
O          1.81314       -0.01105        1.36465
H          0.90309       -0.39967        1.33404
C          4.10063       -0.34613        0.22492
H          4.63315       -0.27649       -0.72402
H          4.50455        0.36485        0.94578
H          4.11857       -1.36281        0.61519
H         -0.59277        1.22745       -0.18270
H         -0.13278        2.17275        1.24091
H         -2.41593        1.43087        1.50900
H         -2.41169        3.18857        1.25905
H         -3.18226        1.16660       -0.70288
H         -4.03128        2.46520       -0.19682
H          0.50047        3.25332       -0.84199
H         -1.09223        3.40129       -1.23264
C         -0.76661        2.18187        0.34685
C         -2.22914        2.22586        0.77061
N         -0.43457        3.34461       -0.45995
N         -3.09683        2.13411       -0.40550
