40
1sa1msa2eda_250.log	Energy: -1095276.2512320
S         -0.77032        1.18161        0.67787
O         -1.90334        2.03994        0.28075
O          0.35976        1.91951        1.27467
O         -1.28898        0.26915        1.90705
O         -0.34640        0.24025       -0.37896
H         -2.09771       -0.20661        1.60435
H          2.03304       -0.08865       -0.21286
S         -4.11440       -0.51168       -0.51233
O         -5.45425       -0.99049       -0.76905
O         -3.45162       -0.91608        0.73490
O         -4.14713        1.06465       -0.59824
H         -3.29086        1.46839       -0.24801
C         -3.04645       -0.97109       -1.85962
H         -3.01233       -2.06126       -1.88054
H         -3.48208       -0.58063       -2.77923
H         -2.05465       -0.55350       -1.66675
H          5.55231       -0.12146       -2.27742
H          4.32369        0.82282       -3.11564
H          5.45698        2.18557       -1.47194
H          3.73778        2.02107       -1.07523
H          5.78690        0.33173        0.18674
H          5.22126        1.71041        0.84592
H          3.21490       -1.10811       -2.63340
H          3.82799       -1.26677       -1.11523
C          4.56668        0.35952       -2.15493
C          4.68866        1.47956       -1.12825
N          3.51133       -0.59191       -1.81358
N          4.98085        0.95051        0.21602
H          2.45023       -0.93256        2.58631
H          0.84472       -0.96454        1.84433
H          1.83298       -3.17104        1.66973
H          1.64021       -2.46529        0.06226
H          4.19464       -2.50155        1.52155
H          3.80811       -3.43867        0.24988
H          1.74916        0.93515        1.04800
H          3.32148        0.27852        0.74594
C          1.91394       -1.04856        1.63953
C          2.21002       -2.39048        0.99470
N          2.29546        0.08845        0.76697
N          3.63454       -2.53292        0.67417
