38
1sa1msa1dma1eda_38.log	Energy: -1060562.4191991
S         -2.73824        0.72209       -0.14387
O         -1.98061        1.48022       -1.14602
O         -2.98294       -0.68681       -0.53843
O         -2.22209        0.86179        1.22889
O         -4.21355        1.39878       -0.04825
H         -4.60816        1.37670       -0.93055
S          2.33205       -1.02363       -0.16749
O          2.77077        0.02312       -1.10290
O          1.58195       -2.14396       -0.80103
O          1.57410       -0.47473        1.00291
C          3.80828       -1.75922        0.51451
H          4.37155       -2.20217       -0.30708
H          4.38843       -0.97276        0.99769
H          3.51514       -2.52087        1.23697
N         -1.00340       -2.46052       -0.03171
C         -1.00925       -2.48837        1.44735
C         -1.41225       -3.73045       -0.66404
H         -1.66912       -1.71176       -0.33373
H         -0.32838       -3.26845        1.79164
H         -0.66938       -1.51845        1.80745
H         -2.02478       -2.68067        1.79574
H         -0.73117       -4.52322       -0.35114
H         -2.43444       -3.96840       -0.36593
H         -1.36221       -3.61160       -1.74620
H         -0.03593       -2.22449       -0.36000
H          0.56652        3.96016        0.90791
H          1.35508        2.91308        2.11636
H          2.96855        3.95262        0.42555
H          3.03176        2.18793        0.49904
H          2.42997        3.70165       -1.76337
H          2.35265        2.05549       -1.59593
H         -0.62844        1.82614        1.08852
H          0.07935        2.01369       -0.38846
C          1.13451        3.03842        1.05376
C          2.40797        3.03907        0.20252
N          0.28529        1.91143        0.61473
N          2.05472        2.94612       -1.20795
H          0.77919        0.99679        0.74583
