33
1sa1msa1ma1dma_74.log	Energy: -1001152.2573482
S         -2.34772       -0.23018        0.04413
O         -2.91649        0.11669       -1.25127
O         -1.95552       -1.67738        0.13686
O         -1.29825        0.65239        0.55533
O         -3.54047       -0.06383        1.13894
H         -4.33634       -0.47556        0.77615
S          1.45641       -1.62988        0.03157
O          2.27533       -0.71700        0.83042
O          0.96713       -1.09514       -1.24918
O          0.29634       -2.20896        0.86644
H         -0.71266       -1.93709        0.53086
C          2.42397       -3.07934       -0.31654
H          3.30818       -2.76088       -0.86908
H          2.70511       -3.53575        0.63240
H          1.81432       -3.75847       -0.91190
N          0.99804        2.00397        1.53303
H          0.05178        1.86367        1.87827
C          1.68715        3.08237        2.24082
H          1.78036        2.91019        3.32025
H          2.69290        3.20240        1.82838
H          1.14999        4.02266        2.08996
H          1.47626        1.11170        1.65972
N          0.71252        1.70985       -1.18586
C         -0.34247        2.48784       -1.86351
C          2.07509        1.92556       -1.70618
H          0.73527        1.92265       -0.13040
H         -0.33774        2.25846       -2.93070
H         -1.30365        2.20971       -1.43337
H         -0.15097        3.55212       -1.71302
H          2.12327        1.63572       -2.75711
H          2.33648        2.98018       -1.59868
H          2.76109        1.31048       -1.12242
H          0.50632        0.69940       -1.23861
