36
1sa1msa2dma_178.log	Energy: -1025801.6907794
S          0.22661       -0.41356       -0.92970
O         -0.98031       -0.39252       -1.77806
O          1.48908       -0.17504       -1.62173
O          0.10458        0.82925        0.08397
O          0.26789       -1.63541       -0.06802
H         -0.80620        0.84395        0.46592
H          1.67738       -1.91463        0.46503
S         -3.66686        0.36217        0.25756
O         -4.40846        1.50086       -0.24335
O         -2.42889        0.62173        1.00969
O         -3.36542       -0.67755       -0.88727
H         -2.41960       -0.58307       -1.25016
C         -4.73009       -0.62373        1.28329
H         -5.03201        0.00312        2.12288
H         -5.59740       -0.91459        0.69064
H         -4.17331       -1.49578        1.62375
N          3.32908        1.55284        0.12009
C          4.53986        1.91232       -0.59953
C          2.85814        2.61493        0.99611
H          2.59751        1.30934       -0.54401
H          5.37162        2.02012        0.10672
H          4.79833        1.12197       -1.31064
H          4.45103        2.85839       -1.15987
H          3.58394        2.77625        1.80252
H          2.71391        3.57686        0.47669
H          1.90303        2.32150        1.43829
N          2.65479       -2.11561        0.87406
C          2.92154       -1.13439        1.95788
C          3.65387       -2.07092       -0.22272
H          2.60713       -3.05726        1.26083
H          3.05574       -0.15279        1.48556
H          2.06857       -1.12621        2.63683
H          3.83043       -1.42181        2.49070
H          3.60129       -1.08065       -0.67300
H          4.64866       -2.26288        0.18328
H          3.38936       -2.81991       -0.96874
