35
1sa1msa1ma1eda_191.log	Energy: -1035885.9594496
S          1.49605       -0.67838       -0.77899
O          0.05770       -0.98815       -1.04085
O          2.44673       -1.67007       -1.26303
O          1.77662        0.70951       -1.25205
O          1.58837       -0.63979        0.81012
H          0.32623        1.54099       -1.47377
H          2.54870       -0.89794        1.08730
S         -2.91502       -0.61484        0.35430
O         -2.82388        0.06908       -0.94546
O         -2.89620        0.23131        1.53672
O         -1.82045       -1.73288        0.43444
H         -0.98392       -1.48556       -0.11926
C         -4.38733       -1.60635        0.37037
H         -5.23459       -0.92061        0.34351
H         -4.37819       -2.25506       -0.50472
H         -4.39231       -2.18730        1.29261
N          4.10047       -1.27801        1.20718
H          4.43832       -1.68047        2.07495
C          4.89815       -0.11031        0.80955
H          5.95906       -0.33885        0.65774
H          4.48900        0.28915       -0.12140
H          4.81123        0.66172        1.57786
H          4.14463       -1.99548        0.48671
H         -0.31007        1.24888        1.11736
H         -0.72623        2.82160        1.77872
H         -2.11253        2.56227       -0.13033
H         -0.83098        3.73469       -0.57658
H         -1.23177        0.94988       -1.41199
H         -0.91394        2.27164       -2.35730
H          1.55032        2.89247        1.74663
H          1.70220        2.16575        0.29337
C         -0.23640        2.33026        0.93348
C         -1.04375        2.69943       -0.30416
N          1.13401        2.82149        0.82574
N         -0.68688        1.82845       -1.47021
