30
1sa1msa2ma_09.log	Energy: -976509.8504856
S         -2.17650        0.20170       -0.47364
O         -1.23772       -0.82382       -1.30309
O         -2.01203        1.52949       -1.07430
O         -3.48492       -0.41597       -0.48751
O         -1.54167        0.20345        0.91461
H         -0.96327       -1.25988        1.31993
H         -0.49101        1.57322        0.91667
S          2.25726       -0.22200       -0.18668
O          1.97038       -1.57121        0.37024
O          2.45258        0.81511        0.85914
O          1.25206        0.20880       -1.19867
H         -0.32140       -0.45322       -1.36372
C          3.80822       -0.37985       -1.04694
H          4.56657       -0.67627       -0.32242
H          3.69169       -1.13957       -1.81983
H          4.04987        0.58686       -1.48854
N          0.14697        2.32783        0.57195
H          1.11560        1.99109        0.73984
C         -0.16906        3.63947        1.16696
H          0.49106        4.40042        0.75093
H         -1.20746        3.88191        0.94233
H         -0.02735        3.58286        2.24593
H         -0.02614        2.31122       -0.43780
N         -0.45431       -2.18243        1.43464
H          0.49469       -2.01884        1.01681
C         -1.18536       -3.27469        0.74844
H         -0.62187       -4.20361        0.83663
H         -2.17218       -3.38430        1.19767
H         -1.29685       -2.99109       -0.29716
H         -0.33485       -2.36995        2.42743
