36
1sa1msa1ma1tma_17.log	Energy: -1025822.5661307
S         -2.67920       -0.60768       -0.14426
O         -2.71032        0.75057       -0.74336
O         -2.41102       -1.67796       -1.10307
O         -1.84452       -0.65069        1.07374
O         -4.17478       -0.85802        0.44316
H         -4.77299       -0.98281       -0.30605
S          2.90400       -0.07525        0.01328
O          2.99767        1.36744        0.27936
O          1.89794       -0.40516       -1.05255
O          2.66788       -0.91136        1.22464
C          4.48637       -0.58730       -0.63925
H          4.67701       -0.02569       -1.55401
H          5.24531       -0.36737        0.11192
H          4.44857       -1.65716       -0.84542
N          0.37564       -2.17980        0.37088
H          0.70654       -1.64026       -0.45366
H          1.16935       -2.04902        1.02073
C          0.05734       -3.58505        0.05276
H         -0.22262       -4.10650        0.96800
H         -0.77766       -3.59388       -0.64730
H          0.93243       -4.06022       -0.39059
H         -0.45211       -1.67769        0.74758
N         -0.68650        2.36277        0.02576
C          0.24458        2.39441       -1.13537
H          0.67082        1.40003       -1.27874
H         -0.32085        2.70167       -2.01606
H          1.05334        3.09519       -0.92258
C         -1.36533        3.66409        0.22280
H         -1.88851        3.93127       -0.69568
H         -2.08573        3.56849        1.03570
H         -0.62004        4.42377        0.46695
C         -0.01613        1.90306        1.27125
H         -0.76325        1.83966        2.06179
H          0.41434        0.92058        1.09961
H          0.78504        2.59878        1.52316
H         -1.44338        1.67350       -0.21458
