40
1sa1msa2eda_118.log	Energy: -1095294.8449400
S         -1.63704        1.26068       -1.31649
O         -0.59779        0.06911       -0.91573
O         -1.85417        1.22050       -2.74765
O         -2.80342        0.87372       -0.47862
O         -0.99183        2.50481       -0.81741
H         -2.74518       -0.51226        0.34860
H          0.25629        2.41209        0.20126
S          2.65927       -0.53945       -0.37305
O          2.16491       -1.90737       -0.14948
O          2.67500        0.28672        0.87871
O          1.96119        0.18732       -1.47102
H          0.30495        0.16623       -1.33117
C          4.36050       -0.68000       -0.88560
H          4.90994       -1.18829       -0.09298
H          4.38433       -1.26212       -1.80696
H          4.75646        0.32163       -1.05252
H         -3.12697       -3.40034        1.01555
H         -3.59345       -2.55170       -0.47931
H         -1.55109       -3.92800       -0.84305
H         -1.18833       -2.20792       -1.02811
H         -0.33792       -3.91006        1.15780
H          0.44462       -2.65581        0.43361
H         -3.50340       -1.20677        1.66150
H         -1.83683       -1.26090        1.54623
C         -2.82441       -2.63837        0.29181
C         -1.45806       -2.97740       -0.30081
N         -2.73341       -1.33999        1.01026
N         -0.46283       -2.98686        0.76039
H         -1.54355        1.65765        1.70278
H         -1.16351        1.43509        3.40868
H         -0.00232        3.38212        2.50554
H          1.18017        2.15795        3.02714
H          1.60281        3.19882        0.81956
H          1.62165        1.53568        0.82653
H         -0.09966       -0.14165        1.15783
H          0.33932       -0.37230        2.71370
C         -0.74976        1.36182        2.39703
C          0.38967        2.38152        2.30509
N         -0.40890       -0.02656        2.12168
N          1.00473        2.38589        0.95123
