28
1sa1msa1eda_156.log	Energy: -975721.8158866
S         -0.98818       -1.66817        0.13870
O         -0.41441       -3.00038        0.19143
O         -0.35834       -0.67626        1.03444
O         -0.74954       -1.06193       -1.36971
O         -2.47806       -1.61558        0.19768
H          0.19125       -0.81118       -1.44754
H         -2.91866       -0.27363       -0.39243
S          2.48463        0.44867       -0.07005
O          1.93835       -0.19765       -1.26289
O          1.89069        1.67255        0.42542
O          4.03228        0.78253       -0.43250
H          4.20482        0.46194       -1.32961
C          2.67893       -0.72006        1.24549
H          1.66350       -0.96693        1.56864
H          3.19120       -1.59512        0.84648
H          3.25563       -0.23801        2.03487
H         -3.84219        2.57948       -0.18864
H         -4.02126        1.27229        1.00961
H         -2.14075        2.87633        1.59703
H         -1.57380        1.21011        1.35808
H         -1.12585        3.43595       -0.44910
H         -0.13477        2.19436       -0.03510
H         -3.86009        0.64146       -1.48790
H         -2.23402        1.00260       -1.27527
C         -3.35697        1.70853        0.26147
C         -1.99453        2.08380        0.85278
N         -3.10887        0.70741       -0.80669
N         -1.09837        2.44435       -0.24145
