41
1sa1msa1tma1eda_104.log	Energy: -1085208.6295848
S          1.16274       -1.58584       -0.96032
O          1.76643       -0.94867       -2.12250
O          0.18223       -0.60923       -0.27970
O          0.49913       -2.87583       -1.13697
O          2.27317       -1.81638        0.14089
H          2.88726       -0.97625        0.19803
S         -1.83473        1.94773       -0.33298
O         -1.51162        2.29180        1.04733
O         -2.83660        0.89672       -0.52909
O         -0.53661        1.61499       -1.14882
H         -0.17318        0.68125       -0.87148
C         -2.35193        3.40896       -1.20043
H         -1.56421        4.15703       -1.11508
H         -2.53545        3.14718       -2.24188
H         -3.26638        3.75596       -0.71849
H          3.66148        2.36315       -0.39086
H          2.42453        1.27781       -1.05289
H          1.43021        2.70618        0.68110
H          1.42689        1.02730        1.20310
H          3.28559        3.09020        2.14140
H          2.29225        2.14359        3.02327
H          4.53722        0.15706       -0.45720
H          4.20815        0.48935        1.12617
C          3.00696        1.51001       -0.15762
C          2.08044        1.87854        0.99218
N          3.79089        0.31938        0.21182
N          2.87274        2.16416        2.19307
N         -1.75769       -1.99106        0.92698
C         -2.61886       -2.40782       -0.21016
H         -3.03635       -1.50825       -0.66302
H         -1.98778       -2.93116       -0.92931
H         -3.41188       -3.06027        0.16334
C         -1.07551       -3.14911        1.55781
H         -0.50009       -3.66573        0.78966
H         -0.39674       -2.77820        2.32674
H         -1.82694       -3.80633        2.00185
C         -2.49657       -1.17527        1.92088
H         -1.79026       -0.80738        2.66596
H         -2.95612       -0.33106        1.40797
H         -3.25509       -1.80024        2.39852
H         -0.99921       -1.38795        0.49771
