26
1sa1msa1dma_37.log	Energy: -940995.0068386
S          0.87718        0.60203        0.15429
O          1.99555        1.36629        0.69891
O         -0.28820        1.38653       -0.30122
O          1.31923       -0.36464       -0.90270
O          0.37518       -0.29439        1.38536
H          2.77726       -0.69125       -0.72393
H         -0.50117       -0.69043        1.15532
S         -3.06774       -0.38335       -0.13016
O         -2.07402       -1.16094        0.62172
O         -4.26996       -1.04718       -0.57672
O         -2.37549        0.25563       -1.40263
H         -1.50490        0.67049       -1.12906
C         -3.48195        1.04218        0.85325
H         -3.94706        0.67890        1.77020
H         -2.55837        1.58267        1.06828
H         -4.17599        1.65790        0.28163
N          3.83381       -0.84882       -0.52087
C          3.97544       -1.17018        0.92171
C          4.56613        0.37356       -0.93352
H          4.13381       -1.64325       -1.08392
H          3.58894       -0.32129        1.48642
H          3.37673       -2.05344        1.14434
H          5.02578       -1.35018        1.15732
H          4.14352        1.20995       -0.37588
H          5.63027        0.25659       -0.72076
H          4.40751        0.53252       -2.00016
