41
1sa1msa1tma1eda_204.log	Energy: -1085199.6032941
S         -0.22955        2.00415        0.17768
O          0.93659        1.76391       -0.66358
O         -1.47349        2.36869       -0.54498
O         -0.48746        0.95760        1.19175
O          0.18479        3.33801        1.00890
H         -0.58284        3.62584        1.52133
S         -3.20428       -0.70091       -0.29459
O         -3.37096       -1.32874        1.00743
O         -1.94392       -0.94913       -0.99819
O         -3.48298        0.84174       -0.21263
H         -2.64674        1.41895       -0.34378
C         -4.55652       -1.20037       -1.33641
H         -4.49873       -2.28375       -1.44596
H         -5.48688       -0.91375       -0.84648
H         -4.45122       -0.70473       -2.30091
H          6.12172       -0.30681       -0.49136
H          5.49763       -1.15710       -1.91208
H          4.67057        1.15455       -1.83765
H          3.34547       -0.00118       -1.71628
H          4.42740        1.57730        0.48897
H          2.88303        1.48413       -0.05752
H          5.27655       -2.49233        0.10136
H          4.29761       -1.34403        0.74395
C          5.20873       -0.72818       -0.94659
C          4.21076        0.40054       -1.18142
N          4.59659       -1.77481       -0.12676
N          3.73716        0.94879        0.09025
N          0.51783       -1.51952        0.71083
C          1.57363       -1.23645        1.71753
H          2.16795       -0.38488        1.37814
H          1.09284       -1.01000        2.66916
H          2.20903       -2.12033        1.80655
C         -0.25909       -2.73294        1.05688
H         -0.70162       -2.59960        2.04414
H         -1.05330       -2.85425        0.32324
H          0.41457       -3.59268        1.04976
C          1.08459       -1.57797       -0.66505
H          0.30527       -1.92034       -1.34355
H          1.37894       -0.56411       -0.93561
H          1.95766       -2.23462       -0.66669
H         -0.11773       -0.69392        0.74219
