38
1sa1msa1dma1eda_301.log	Energy: -1060543.7369621
S          0.03216       -1.85741       -0.07440
O          1.16974       -2.64843       -0.52878
O          0.35726       -0.87668        0.98995
O         -0.77017       -1.22676       -1.14670
O         -1.02290       -2.89918        0.59766
H         -0.51933       -3.62965        0.98134
S         -3.33858        0.80443        0.07866
O         -4.70023        1.28378        0.04082
O         -2.25476        1.77441       -0.13857
O         -3.21984       -0.36038       -0.97926
H         -2.28024       -0.70943       -1.05455
C         -3.02505       -0.00545        1.63262
H         -3.14558        0.74866        2.41158
H         -3.75905       -0.80235        1.75020
H         -2.00737       -0.40218        1.63186
N          0.50090        1.57568       -0.30187
C          1.07727        1.41159       -1.65917
C          1.10821        2.66627        0.49546
H         -0.52349        1.71161       -0.36393
H          2.10085        1.04205       -1.56142
H          0.47658        0.67521       -2.19299
H          1.04774        2.37342       -2.17332
H          2.18640        2.49060        0.57449
H          0.91378        3.61700       -0.00391
H          0.64204        2.67174        1.48126
H          0.59159        0.67765        0.21512
H          5.81582        0.31181        0.49858
H          4.92244        0.85232        1.92466
H          4.16289       -1.36076        1.19457
H          2.85491       -0.18564        1.07871
H          4.45328       -1.11315       -1.19446
H          2.87879       -1.41581       -0.90335
H          5.06707        2.61077        0.28232
H          4.28154        1.67772       -0.81027
C          4.82709        0.65151        0.85249
C          3.81876       -0.47123        0.64546
N          4.37759        1.87327        0.18261
N          3.61174       -0.71812       -0.78315
