35
1sa1msa1ma1eda_73.log	Energy: -1035893.8908744
S          0.44564       -1.77798       -0.45849
O         -0.04302       -1.02732        0.87047
O          0.35364       -0.80147       -1.55729
O          1.85803       -2.17498       -0.20004
O         -0.46742       -2.93087       -0.56824
H          2.75472       -0.96387       -0.64386
H         -2.02037       -2.29925       -0.17010
S         -1.65147        1.92759       -0.05432
O         -2.11115        3.22210        0.43317
O         -2.68871        0.84973       -0.00686
O         -0.37574        1.46213        0.59723
H         -0.17268       -0.02149        0.72635
C         -1.24249        2.10252       -1.78510
H         -2.15141        2.38047       -2.31965
H         -0.49621        2.89348       -1.87486
H         -0.84719        1.14722       -2.13536
N         -2.84650       -1.77847        0.20714
H         -2.68515       -0.74091        0.05345
C         -2.99548       -2.03513        1.65801
H         -3.80527       -1.41967        2.04898
H         -3.19926       -3.09262        1.82646
H         -2.05484       -1.75867        2.13182
H         -3.67756       -2.04770       -0.31408
H          3.11265        2.01441       -0.78876
H          1.57202        1.11630       -0.65441
H          2.31001        1.97606        1.57569
H          2.24062        0.21899        1.53296
H          4.66856        1.83844        1.54507
H          4.34326        0.45430        2.34740
H          3.35349       -0.05652       -1.93687
H          4.22900       -0.12226       -0.49737
C          2.62288        1.13268       -0.36530
C          2.78377        1.08686        1.14809
N          3.29489       -0.07711       -0.92168
N          4.20897        0.93751        1.46745
