36
1sa1msa1ma1tma_31.log	Energy: -1025817.4847284
S          0.45872        1.66767       -0.77944
O         -0.42327        1.13887       -1.82126
O          0.38058        0.76025        0.46113
O          1.85711        1.88677       -1.13527
O         -0.11556        3.04996       -0.28524
H         -1.08800        2.88948        0.02107
S         -1.50259       -2.06488       -0.09748
O         -2.46347       -2.99529        0.45872
O         -0.07869       -2.41205       -0.07575
O         -1.68889       -0.68102        0.65219
H         -0.84454       -0.10416        0.55977
C         -1.94416       -1.68036       -1.77593
H         -1.76689       -2.58006       -2.36650
H         -3.00144       -1.41500       -1.79233
H         -1.32328       -0.84449       -2.10687
N         -2.51822        2.41016        0.60097
H         -3.29356        2.99882        0.31335
C         -2.43755        2.31863        2.06529
H         -3.32503        1.86584        2.52022
H         -1.56406        1.71812        2.32711
H         -2.29557        3.31940        2.47960
H         -2.68166        1.48620        0.20531
N          2.63103       -0.68953        0.56807
C          3.67786        0.30689        0.90503
H          3.63985        1.10172        0.16011
H          3.46212        0.72272        1.88978
H          4.65222       -0.18711        0.91112
C          2.51504       -1.75399        1.59442
H          2.31916       -1.28678        2.56034
H          1.68416       -2.40461        1.32169
H          3.45287       -2.31296        1.63578
C          2.82687       -1.24904       -0.79532
H          1.99432       -1.91934       -1.00832
H          2.83016       -0.41883       -1.50246
H          3.77756       -1.78684       -0.82439
H          1.71293       -0.16362        0.54579
