41
1sa1msa1tma1eda_147.log	Energy: -1085207.0519131
S         -1.02755       -1.41936       -1.22175
O         -0.43649       -1.91542        0.08259
O         -0.87519        0.05908       -1.28945
O         -0.56645       -2.16388       -2.37266
O         -2.58427       -1.68486       -1.08736
H         -2.99336       -0.96593       -0.49533
S          2.54538       -0.58586        0.70738
O          3.47383        0.02282        1.64620
O          2.45886       -0.00414       -0.63604
O          1.11969       -0.57098        1.36005
H          0.40521       -1.13549        0.75911
C          2.89321       -2.32010        0.52241
H          3.86145       -2.40631        0.02867
H          2.91990       -2.77086        1.51423
H          2.10167       -2.75674       -0.08951
H         -4.00250        1.14506        2.29775
H         -4.20854       -0.60357        2.09528
H         -2.22633       -0.21873        3.42995
H         -1.74165       -0.85914        1.85605
H         -1.38793        1.85840        2.81686
H         -0.33189        0.85590        2.06865
H         -4.42117        0.69354       -0.00713
H         -2.81393        1.03095        0.10837
C         -3.57479        0.24733        1.82586
C         -2.16680        0.01462        2.35823
N         -3.53728        0.36082        0.36407
N         -1.30002        1.16899        2.07637
N          0.54173        2.24922       -0.93195
C          1.41865        2.79341        0.13348
H          0.92879        2.64557        1.09546
H          2.36772        2.26205        0.11653
H          1.57001        3.85946       -0.05063
C          1.19534        2.28662       -2.26612
H          2.13195        1.73545       -2.19854
H          0.53431        1.79389       -2.97873
H          1.36748        3.32818       -2.54656
C         -0.77746        2.93058       -0.94060
H         -1.39275        2.47221       -1.71386
H         -1.23660        2.77518        0.03835
H         -0.62640        3.99362       -1.14124
H          0.32955        1.24191       -0.75955
