38
1sa1msa1dma1eda_101.log	Energy: -1060559.1672882
S          0.70912       -1.57850       -0.63372
O          0.59339       -0.40624       -1.73408
O          0.52114       -0.94691        0.68414
O         -0.34671       -2.56810       -0.92612
O          2.09672       -2.04628       -0.86677
H          2.91106       -0.61692       -0.90335
S         -1.57339        1.83239       -0.07926
O         -0.24498        2.42507        0.12388
O         -2.18137        1.21234        1.13241
O         -1.62605        0.86952       -1.23088
H         -0.25878        0.10688       -1.59236
C         -2.66774        3.16763       -0.53840
H         -2.68474        3.88607        0.28155
H         -2.27622        3.62911       -1.44516
H         -3.66250        2.75721       -0.71230
N         -2.37152       -1.48871        0.70144
C         -2.22691       -2.20142        1.98552
C         -3.70635       -1.57619        0.08064
H         -2.15064       -0.47544        0.85571
H         -2.42574       -3.26377        1.83453
H         -1.20193       -2.05772        2.32662
H         -2.92931       -1.78460        2.70918
H         -3.93813       -2.62015       -0.13729
H         -4.44767       -1.16010        0.76467
H         -3.68409       -0.99386       -0.84079
H         -1.66064       -1.86517        0.04060
H          3.15463        2.27506       -0.13521
H          1.67322        1.29489       -0.02110
H          2.83665        1.43772        2.19351
H          2.75376       -0.21571        1.58948
H          5.13941        1.47746        1.68980
H          4.98480       -0.10820        2.05104
H          3.14368        0.68812       -1.91416
H          4.33630        0.28237       -0.78673
C          2.76082        1.27423        0.06482
C          3.21684        0.76043        1.42073
N          3.32969        0.35763       -0.96973
N          4.67873        0.61699        1.41383
