39
1sa1msa1dma1tma_48.log	Energy: -1050477.1282031
S          0.64778        1.60932        0.19668
O          1.66497        2.34529       -0.54613
O         -0.24286        2.37787        1.06786
O         -0.20646        0.75167       -0.74416
O          1.38780        0.55179        1.11683
H          2.30969        0.25621        0.67913
S         -0.64870       -2.55261        0.04212
O         -0.72264       -3.91938       -0.43094
O         -1.89022       -1.81916        0.30041
O          0.22193       -1.73710       -0.99329
H          0.07269       -0.72843       -0.89736
C          0.33007       -2.49583        1.52729
H         -0.23708       -3.00201        2.30939
H          1.26473       -3.02216        1.33195
H          0.51372       -1.44817        1.77386
N          3.62163       -0.14174        0.04248
C          4.56046        0.96748        0.25111
C          3.38078       -0.42031       -1.38036
H          3.98535       -0.97953        0.48839
H          4.10601        1.87660       -0.14889
H          4.72471        1.10673        1.32195
H          5.52467        0.79164       -0.24397
H          2.92976        0.46738       -1.83017
H          4.30938       -0.66202       -1.91383
H          2.67757       -1.25060       -1.47347
N         -2.79679        1.22871       -0.22340
C         -2.91978        2.67040       -0.55219
H         -2.23863        3.22515        0.09286
H         -2.63343        2.81701       -1.59418
H         -3.95510        2.98369       -0.39835
C         -3.61341        0.38008       -1.12499
H         -3.32309        0.58538       -2.15612
H         -3.41445       -0.66460       -0.88672
H         -4.66974        0.61873       -0.98024
C         -3.09604        0.96758        1.20850
H         -2.93088       -0.09209        1.39952
H         -2.41016        1.56677        1.80713
H         -4.13537        1.24081        1.40704
H         -1.78208        0.97329       -0.38342
