42
1sa1msa2tma_57.log	Energy: -1075121.7045792
S          0.52550       -1.27017        0.77758
O         -0.50390       -0.61921        1.61466
O          1.69514       -1.76311        1.49862
O         -0.14604       -2.57274        0.14214
O          0.91166       -0.39464       -0.37812
H         -1.01851       -2.31600       -0.24007
H          2.44923       -0.41446       -0.53553
S         -3.40083       -0.51657       -0.36382
O         -4.71696       -0.95903        0.04184
O         -2.43906       -1.51664       -0.84646
O         -2.73585        0.32689        0.79005
H         -1.84361       -0.05390        1.09234
C         -3.57784        0.71399       -1.63479
H         -4.07550        0.23469       -2.47844
H         -4.18817        1.52591       -1.23938
H         -2.58544        1.06606       -1.91525
N          0.25421        3.37837        0.27309
C         -0.03281        2.93176        1.62997
H          0.61052        3.46869        2.33435
H         -1.07284        3.16220        1.87748
H          0.11717        1.84705        1.76517
C         -0.64820        2.75939       -0.68527
H         -1.68247        2.97308       -0.39957
H         -0.47416        3.18444       -1.68028
H         -0.51696        1.66390       -0.73858
C          1.63563        3.11970       -0.07660
H          1.84355        3.50836       -1.08005
H          2.30017        3.62968        0.62896
H          1.86745        2.03583       -0.06392
N          3.51262       -0.48786       -0.66658
C          3.79546       -1.92897       -0.88551
H          3.44426       -2.47694       -0.01097
H          3.24378       -2.26211       -1.76524
H          4.86856       -2.06932       -1.03554
C          3.86548        0.33472       -1.84471
H          3.31543       -0.03551       -2.71037
H          3.58113        1.36959       -1.65109
H          4.94062        0.26859       -2.02760
C          4.14890        0.00992        0.57815
H          3.88105        1.05844        0.71366
H          3.75924       -0.57498        1.41137
H          5.23339       -0.09420        0.49363
