40
1sa1msa2eda_32.log	Energy: -1095295.8466961
S          2.39702        1.28984       -0.34500
O          1.71575        0.66920        0.81288
O          3.01520        0.33005       -1.26042
O          1.56305        2.31462       -1.01185
O          3.60708        2.10893        0.37333
H          4.14371        2.51308       -0.32184
S         -2.68709       -1.37732       -0.06634
O         -3.45955       -0.23842        0.45174
O         -2.10982       -2.29127        0.93348
O         -1.60403       -0.89956       -1.02411
C         -3.79479       -2.34214       -1.08120
H         -4.59232       -2.71318       -0.43673
H         -4.20006       -1.69609       -1.85999
H         -3.23689       -3.17149       -1.51598
H          1.27477       -3.41248       -1.10345
H          2.09632       -1.85753       -1.43073
H          3.66005       -3.44542       -0.32570
H          3.34887       -2.01825        0.66293
H          2.25817       -4.69467        1.14263
H          2.97881       -3.67025        2.19696
H         -0.13034       -1.56879       -0.41357
H          0.40520       -2.40756        0.92435
C          1.74672       -2.53580       -0.65106
C          2.89317       -2.93194        0.26930
N          0.71574       -1.82650        0.14023
N          2.37343       -3.71734        1.38715
H          1.10450       -0.93690        0.51718
H         -2.15519        1.54970        1.19323
H         -0.37574        1.60299        1.33662
H         -1.41132        3.74832        2.14785
H         -0.35439        4.00122        0.75143
H         -3.28641        3.93511        0.66039
H         -2.27972        5.11687        0.13715
H         -1.34963        0.79967       -0.83946
H         -1.79227        2.42171       -1.07820
C         -1.24544        2.04995        0.85263
C         -1.30109        3.55527        1.07295
N         -1.13016        1.79534       -0.60880
N         -2.37552        4.11517        0.25037
H         -0.16236        2.01661       -0.92242
