30
1sa1msa2ma_95.log	Energy: -976491.1351663
S          0.64836        0.42430        1.01825
O          0.37740        0.99620       -0.33987
O          0.36159       -1.01804        1.04394
O          1.99779        0.79239        1.48726
O         -0.33038        1.15430        2.03503
H         -1.25375        1.04491        1.70153
S         -2.96847       -0.06041       -0.41352
O         -4.24684        0.06482       -1.07585
O         -2.71705        0.73302        0.79613
O         -1.83997        0.25956       -1.47786
H         -0.98436        0.56253       -1.03309
C         -2.67108       -1.76718       -0.01168
H         -3.43267       -2.06067        0.71184
H         -2.76653       -2.34931       -0.92825
H         -1.67027       -1.84370        0.41913
N          2.59372       -1.75090       -0.89970
H          1.61250       -1.63231       -0.64114
C          3.27581       -2.42941        0.21468
H          2.85778       -3.41734        0.43365
H          4.33906       -2.54256       -0.01584
H          3.16983       -1.81309        1.11039
H          2.61938       -2.32244       -1.73847
N          3.48642        0.84644       -0.77745
H          3.20318       -0.17962       -0.97057
H          3.00140        1.04660        0.13020
C          3.03074        1.75433       -1.85501
H          3.30179        2.78172       -1.61161
H          3.49246        1.45997       -2.79803
H          1.94630        1.67052       -1.91313
H          4.49157        0.89925       -0.63025
