28
1sa1msa1eda_77.log	Energy: -975730.6948946
S          1.74147       -1.16642       -0.14026
O          0.72811       -1.94530       -0.88866
O          2.37423       -0.10369       -0.91978
O          1.26667       -0.72951        1.19189
O          2.88754       -2.24760        0.24674
H          3.17570       -2.68268       -0.56753
S         -2.27866       -0.49073       -0.00230
O         -3.69832       -0.28746       -0.19701
O         -1.43784        0.68031        0.26774
O         -1.73634       -1.23698       -1.28473
H         -0.75858       -1.45765       -1.19083
C         -1.99981       -1.66357        1.30651
H         -2.42072       -1.23126        2.21521
H         -2.51346       -2.58911        1.04741
H         -0.92290       -1.81054        1.41047
H          1.88749        3.65495        0.61978
H          2.48394        2.08634       -0.02807
H          1.06004        3.36550       -1.69642
H          0.41417        1.77747       -1.29095
H         -0.79847        4.30512       -0.72885
H         -1.43917        2.78414       -0.59011
H          1.32324        2.16017        2.27722
H         -0.07049        2.27582        1.35268
C          1.60408        2.66457        0.25511
C          0.60206        2.77826       -0.89449
N          0.91093        1.95459        1.37053
N         -0.63549        3.36741       -0.38830
H          0.93584        0.90859        1.24327
