33
1sa1msa1a1tma_09.log	Energy: -1001163.2193989
S         -2.62782       -0.89594        0.11313
O         -2.33115       -2.24287        0.60339
O         -2.97908        0.09788        1.12771
O         -1.58241       -0.39323       -0.83670
O         -3.90796       -1.03021       -0.88594
H         -4.62540       -1.45461       -0.39589
S          2.98223       -0.28607       -0.05730
O          2.93123        1.10106       -0.55054
O          2.89386       -1.32754       -1.10905
O          1.96359       -0.53449        1.02518
C          4.57281       -0.48853        0.72799
H          5.34105       -0.33296       -0.02992
H          4.65928        0.25502        1.52053
H          4.63361       -1.49725        1.13673
N          0.41536       -2.27241       -0.30856
H          1.17389       -2.53324       -0.94485
H          0.89426       -1.71059        0.44145
H         -0.24954       -1.62834       -0.77219
H         -0.12161       -3.05199        0.06484
N         -0.75386        2.10933       -0.08248
C         -2.00840        2.90206       -0.05030
H         -2.40903        2.96819       -1.06261
H         -2.72143        2.38665        0.59324
H         -1.78523        3.90111        0.33020
C         -0.16997        1.94663        1.27780
H         -0.93921        1.52151        1.92353
H          0.68440        1.26827        1.21717
H          0.14316        2.92762        1.64210
C          0.23079        2.66115       -1.05057
H          1.14907        2.06896       -1.01007
H         -0.20977        2.62531       -2.04784
H          0.44599        3.69638       -0.77594
H         -1.02070        1.15114       -0.40842
