26
1sa1msa1dma_66.log	Energy: -940973.8752753
S         -3.06690       -0.44986       -0.15122
O         -2.56896        0.80543       -0.68585
O         -4.21440       -1.09825       -0.71844
O         -1.90653       -1.50246       -0.08897
O         -3.35014       -0.12031        1.39720
H         -1.03830       -1.05756        0.14977
H         -3.86541       -0.84141        1.78805
S          0.80979        0.99355       -0.06232
O          1.33554        0.83836       -1.40375
O          0.26230       -0.21362        0.58944
O         -0.30692        2.12616       -0.01494
H         -1.18022        1.74615       -0.28571
C          2.01892        1.70489        1.00928
H          2.85904        0.99808        0.98772
H          2.30527        2.66991        0.59057
H          1.58133        1.81146        2.00097
N          3.85922       -0.72841       -0.10498
C          3.38591       -2.00140        0.42194
C          5.29807       -0.70552       -0.32044
H          3.38025       -0.52728       -0.97815
H          3.81241       -2.16054        1.41843
H          2.29773       -1.97485        0.51998
H          3.66426       -2.86521       -0.20516
H          5.81133       -0.79798        0.64280
H          5.65728       -1.51984       -0.97236
H          5.58968        0.24859       -0.76767
