30
1sa1msa1a1dma_84.log	Energy: -976496.6597596
S         -0.73718       -1.46352       -0.20904
O         -2.00191       -2.14525       -0.43988
O         -0.49208       -0.36016       -1.22422
O         -0.55206       -0.91113        1.14734
O          0.39759       -2.54372       -0.47660
H         -2.88759       -0.53509        2.07437
H          1.27605       -2.09768       -0.43630
S          2.71540        0.43198        0.00016
O          3.92148        1.18260       -0.26374
O          2.65913       -0.98685       -0.36735
O          1.51036        1.18171       -0.71112
H          0.76694        0.53309       -0.94812
C          2.30354        0.55975        1.72600
H          3.10286        0.06531        2.27961
H          2.25687        1.61770        1.98535
H          1.34697        0.05492        1.87981
N         -3.58783       -0.36712        1.35479
H         -3.54085       -1.19208        0.75443
H         -2.89385        0.84381        0.34646
H         -4.50081       -0.33242        1.79541
N         -2.29340        1.48522       -0.26308
C         -1.42401        2.28347        0.62850
C         -3.14249        2.27900       -1.16992
H         -1.67842        0.83802       -0.80604
H         -2.04535        2.91989        1.26144
H         -0.84836        1.58501        1.23710
H         -0.74521        2.89264        0.02977
H         -3.80498        2.91525       -0.58029
H         -2.51430        2.89842       -1.81220
H         -3.73510        1.60025       -1.78368
