33
1sa1msa1ma1dma_154.log	Energy: -1001149.0564287
S          0.40002        0.55785       -0.58587
O          1.68335        0.61339       -1.29229
O         -0.24040       -0.78277       -0.63561
O          0.49507        1.05997        0.81250
O         -0.54864        1.55598       -1.38275
H          2.07827        1.12551        1.28519
H         -1.47575        1.43206       -1.06637
S         -3.61332       -0.26683        0.07130
O         -4.60401       -0.84999       -0.80912
O         -2.98001        0.99625       -0.33253
O         -2.49423       -1.31718        0.42626
H         -1.59234       -1.08680        0.00618
C         -4.34120       -0.01766        1.67344
H         -5.15346        0.69877        1.54685
H         -4.72475       -0.97491        2.02635
H         -3.57641        0.37365        2.34349
N          3.12892        1.08130        1.36591
H          3.39514        1.09352        2.34713
C          3.73396        2.19867        0.60641
H          4.82110        2.11001        0.62515
H          3.36429        2.12713       -0.41692
H          3.42916        3.15148        1.03963
H          3.40539        0.13185        0.90587
N          3.59549       -1.21120       -0.03347
C          2.81762       -2.32530        0.51421
C          4.95536       -1.59013       -0.40682
H          3.09503       -0.84102       -0.84357
H          3.24475       -2.63456        1.47403
H          1.78385       -2.00607        0.66684
H          2.81016       -3.19500       -0.15676
H          5.51138       -1.89083        0.48720
H          4.97842       -2.42583       -1.12023
H          5.46427       -0.73481       -0.85909
