40
1sa1msa2eda_228.log	Energy: -1095278.2086160
S         -0.24334       -1.80067        0.07081
O          0.53472       -0.52246        0.15186
O         -0.90592       -2.00988       -1.21381
O          0.65080       -2.91060        0.50133
O         -1.37101       -1.68650        1.17701
H          2.11232       -2.39807        0.73195
H         -2.30848       -1.78954        0.73007
S          0.44862        2.85393       -0.04863
O          0.00051        4.10080       -0.63041
O          1.88422        2.60370        0.08057
O         -0.20796        1.68381       -0.89719
H          0.08977        0.77728       -0.54881
C         -0.29124        2.63630        1.55656
H          0.12022        3.40775        2.20859
H         -1.37333        2.73815        1.45309
H         -0.02905        1.63981        1.91685
H          4.83371       -2.18059       -0.44580
H          3.31817       -2.71690       -1.21809
H          4.09633       -0.34578       -1.90330
H          2.45362       -0.42739       -1.24638
H          4.75866        0.72234        0.06660
H          3.16796        1.14031        0.14691
H          3.61676       -2.80474        1.39141
H          3.23714       -1.16963        1.21381
C          3.76248       -1.98462       -0.54221
C          3.51066       -0.53905       -0.99787
N          3.14379       -2.12334        0.80417
N          3.81607        0.35416        0.11513
H         -4.92729        0.33141        0.71735
H         -4.63917        1.23161       -0.75970
H         -4.97331       -1.02674       -1.42858
H         -3.23517       -0.71238       -1.61259
H         -4.45015       -2.17885        0.61881
H         -3.49076       -2.77278       -0.57035
H         -2.52224        0.38053        1.08947
H         -2.32167        1.27430       -0.25920
C         -4.19968        0.48342       -0.09142
C         -4.04290       -0.81831       -0.88215
N         -2.98479        1.04532        0.47702
N         -3.68042       -1.94895       -0.00480
