39
1sa1msa1dma1tma_12.log	Energy: -1050487.8199541
S         -0.30664        1.80509       -0.46896
O         -0.20763        0.97522        0.75061
O          0.35877        0.94483       -1.65213
O         -1.72578        2.03833       -0.83444
O          0.54453        3.00455       -0.42927
H          2.03089        2.01100        0.08761
S          0.84772       -2.15675       -0.06661
O          0.05603       -2.42419        1.14209
O          2.07484       -1.33981        0.15715
O          0.02435       -1.61593       -1.19773
H          0.18757       -0.03247       -1.51570
C          1.45008       -3.73335       -0.65354
H          2.08148       -4.16397        0.12400
H          0.58968       -4.37429       -0.84757
H          2.01917       -3.56562       -1.56793
N          2.67053        1.26940        0.43224
C          2.82563        1.41569        1.89397
C          3.92956        1.29505       -0.33571
H          2.20543        0.34354        0.26191
H          3.29712        2.37437        2.11652
H          1.82978        1.36733        2.33360
H          3.43771        0.59350        2.26684
H          4.43762        2.24741       -0.17485
H          4.56095        0.46840       -0.00769
H          3.68822        1.17424       -1.39154
N         -3.10148       -0.00117        0.34003
C         -4.41812        0.65970        0.48549
H         -4.34601        1.42012        1.26338
H         -4.67749        1.13549       -0.46063
H         -5.16948       -0.08526        0.75609
C         -3.10579       -1.01966       -0.74196
H         -3.41780       -0.53703       -1.66895
H         -2.09253       -1.41349       -0.85328
H         -3.80337       -1.81638       -0.47317
C         -2.60975       -0.56995        1.62305
H         -1.64149       -1.04627        1.45743
H         -2.49771        0.24202        2.34102
H         -3.34319       -1.29913        1.97736
H         -2.44761        0.75647        0.02082
