42
1sa1msa2tma_10.log	Energy: -1075140.4334841
S          3.00727       -0.65158       -0.19374
O          2.73295       -1.75781       -1.11313
O          2.99933        0.68152       -0.86066
O          2.23594       -0.64411        1.05303
O          4.54332       -0.86303        0.31828
H          5.07657       -1.10225       -0.45117
S         -2.88208        0.72146       -0.04655
O         -2.57909        2.13509        0.21475
O         -3.19432       -0.09753        1.14345
O         -1.80623        0.05464       -0.87589
C         -4.33871        0.69665       -1.08463
H         -5.15117        1.17268       -0.53487
H         -4.12017        1.24818       -1.99934
H         -4.58788       -0.34049       -1.31204
N          1.15667        2.35422        0.10887
C          0.28000        2.59559       -1.06767
H          0.90614        2.93491       -1.89391
H         -0.22377        1.66230       -1.32119
H         -0.47566        3.33748       -0.80627
C          0.40156        1.80437        1.26509
H         -0.08287        0.88478        0.94625
H          1.10846        1.58382        2.06381
H         -0.36040        2.52270        1.56960
C          1.92492        3.56184        0.48407
H          2.60090        3.30883        1.30134
H          2.50588        3.89260       -0.37740
H          1.23174        4.34593        0.79605
H          1.86703        1.63484       -0.19891
N         -1.17690       -2.34944        0.11388
C         -0.23180       -3.06079       -0.78228
H         -0.67969       -3.13103       -1.77448
H          0.71235       -2.51496       -0.83911
H         -0.05415       -4.06212       -0.38236
C         -0.60674       -2.13672        1.47052
H          0.36082       -1.63953        1.37281
H         -1.30791       -1.51735        2.03189
H         -0.47653       -3.10859        1.95323
C         -2.49357       -3.02715        0.18356
H         -3.15743       -2.41177        0.79184
H         -2.89590       -3.11810       -0.82669
H         -2.36199       -4.01940        0.62171
H         -1.36492       -1.38798       -0.29595
