38
1sa1msa1dma1eda_232.log	Energy: -1060546.9313995
S          2.58631        0.30586       -0.35558
O          2.34442       -0.88919       -1.16108
O          1.95934        1.54857       -0.88047
O          2.32706        0.12193        1.08731
O          4.17584        0.56900       -0.51071
H          4.37786        1.42955       -0.11806
S         -1.30529        2.04582        0.39910
O         -0.76506        3.20811        1.07501
O         -1.39230        0.78889        1.15363
O         -0.55063        1.76734       -0.96300
H          0.47514        1.72585       -0.87337
C         -2.91664        2.39923       -0.26098
H         -3.55672        2.63616        0.58995
H         -2.83363        3.25543       -0.92974
H         -3.27642        1.50927       -0.78226
N          0.37841       -1.82819        1.25682
C          1.21812       -3.02385        1.03582
C         -0.59347       -1.95965        2.35744
H          1.00895       -1.01408        1.40213
H          0.57495       -3.86646        0.77227
H          1.90749       -2.80216        0.22017
H          1.77622       -3.25332        1.94512
H         -1.30376       -2.75275        2.11232
H         -0.06844       -2.21312        3.28041
H         -1.11485       -1.01071        2.47172
H         -0.11736       -1.62245        0.32764
H         -2.44729       -3.00310       -0.05494
H         -3.65081       -2.88839       -1.34599
H         -1.32586       -3.11171       -2.18847
H         -2.13282       -1.64390       -2.76802
H          0.24715       -1.45282       -1.81015
H         -0.84015       -0.36652       -1.30568
H         -4.20494       -1.19988        0.13886
H         -2.67545       -0.63155        0.26630
C         -2.82997       -2.35044       -0.86032
C         -1.71753       -2.13696       -1.87958
N         -3.33747       -1.07275       -0.36979
N         -0.62210       -1.36156       -1.28796
