41
1sa1msa1tma1eda_221.log	Energy: -1085196.5528890
S          0.32907       -1.70226       -0.59566
O          0.83066       -0.72933       -1.58608
O         -0.70126       -2.61707       -1.11849
O          1.54066       -2.65494       -0.20486
O         -0.11747       -1.02309        0.65756
H          2.32441       -2.09024        0.00593
H         -1.80497       -1.50851        1.02938
S          3.37179        0.62013        0.39379
O          4.57757        1.41195        0.46083
O          3.48344       -0.84310        0.34351
O          2.53911        1.11471       -0.85883
H          1.89504        0.40949       -1.17143
C          2.31643        1.02828        1.76703
H          2.85343        0.75016        2.67485
H          2.13057        2.10222        1.74334
H          1.39227        0.45473        1.66732
H         -4.67068       -0.90021        2.06166
H         -5.08666        0.22146        0.78055
H         -4.47752       -1.93413       -0.22588
H         -3.28232       -0.69431       -0.67250
H         -2.89695       -2.73731        1.42268
H         -2.10085       -2.62142       -0.07379
H         -2.62161        0.24031        2.39227
H         -2.81933        1.13726        0.99424
C         -4.24686       -0.31674        1.23400
C         -3.70445       -1.26384        0.15879
N         -3.29846        0.64070        1.75466
N         -2.59468       -2.10089        0.68739
N         -2.02459        2.13224       -0.56742
C         -1.90060        1.52288       -1.88539
H         -1.32499        0.59592       -1.81961
H         -2.89506        1.30283       -2.28850
H         -1.38188        2.18455       -2.60173
C         -2.78329        3.37266       -0.63091
H         -3.77343        3.18009       -1.05497
H         -2.91661        3.77753        0.37658
H         -2.28413        4.13771       -1.25259
C         -0.70895        2.34656        0.02467
H         -0.82449        2.78796        1.02044
H         -0.20177        1.38479        0.12480
H         -0.07768        3.01702       -0.58388
