42
1sa1msa2tma_34.log	Energy: -1075129.5690738
S          0.33599       -0.22569       -0.72834
O          0.89410        1.14202       -0.77563
O          0.42765       -0.84310        0.60925
O         -1.03434       -0.30381       -1.28891
O          1.19103       -1.12438       -1.73506
H          2.14369       -1.02804       -1.49241
S          4.11153        0.29452        0.24728
O          5.51325        0.62042        0.37460
O          3.69806       -0.64867       -0.79997
O          3.32030        1.65143        0.06209
H          2.38827        1.48397       -0.27674
C          3.49641       -0.32552        1.79770
H          4.02464       -1.25850        1.99861
H          3.71500        0.41589        2.56605
H          2.42297       -0.50068        1.69182
N         -2.58557       -1.73583        0.32838
C         -3.96250       -1.76332       -0.21545
H         -4.37544       -0.75934       -0.11452
H         -3.91817       -2.04511       -1.26813
H         -4.55780       -2.48873        0.34415
C         -1.89726       -3.04316        0.18509
H         -1.87373       -3.31033       -0.87187
H         -0.87690       -2.92910        0.55151
H         -2.43914       -3.79958        0.75745
C         -2.55109       -1.24341        1.72798
H         -1.50553       -1.12998        2.01507
H         -3.05221       -0.27556        1.74466
H         -3.06342       -1.96230        2.37211
H         -2.02844       -1.05684       -0.26424
N         -3.57318        1.55811        0.16954
C         -3.63986        1.72387       -1.27815
H         -2.72942        1.32533       -1.73146
H         -4.50136        1.17570       -1.67578
H         -3.75061        2.78420       -1.56900
C         -4.79105        2.03429        0.80559
H         -5.65705        1.48729        0.41740
H         -4.73666        1.86980        1.88701
H         -4.96490        3.11247        0.63290
C         -2.40571        2.24899        0.70607
H         -2.32274        2.06501        1.78263
H         -1.49918        1.88404        0.21957
H         -2.46492        3.34138        0.55087
