30
1sa1msa1a1dma_52.log	Energy: -976498.1165982
S         -1.71146        0.27272       -0.01253
O         -1.74028       -1.12688        0.43886
O         -1.60776        1.28319        1.04303
O         -0.61783        0.50379       -1.03735
O         -3.04134        0.53551       -0.83339
H         -3.74655       -0.14536       -0.56228
S          2.11857       -1.38412        0.07056
O          2.06611       -0.19717        0.94031
O          3.41691       -1.92947       -0.26034
O          1.39009       -1.05440       -1.29153
H          0.53360       -0.51349       -1.17172
C          1.09602       -2.63103        0.81161
H          1.54465       -2.87713        1.77465
H          0.08923       -2.22091        0.92875
H          1.09879       -3.49640        0.14877
N         -4.67888       -1.40718       -0.02261
H         -5.11081       -1.98643       -0.73421
H         -5.37444       -1.19368        0.68392
H         -3.92342       -1.93311        0.41314
N          1.13117        2.24759        0.09067
C          2.11096        2.59982       -0.95871
C          0.72188        3.36070        0.97203
H          0.29891        1.80529       -0.36134
H          3.01774        2.98764       -0.49279
H          2.34477        1.69966       -1.52815
H          1.67631        3.35259       -1.61757
H          1.59585        3.73462        1.50774
H          0.29095        4.15509        0.36110
H         -0.03193        2.98179        1.66093
H          1.51623        1.45585        0.63787
