35
1sa1msa1ma1eda_268.log	Energy: -1035879.8253375
S         -0.63367       -1.29769       -0.27478
O         -1.03660       -0.34780       -1.31430
O         -0.03965       -0.61019        0.91133
O         -1.72866       -2.21769        0.10893
O          0.49783       -2.26351       -0.84903
H         -3.07678       -1.41114       -0.36803
H          1.30807       -1.73154       -1.03196
S          3.12601        0.16379        0.15777
O          2.95084        1.60037        0.04366
O          2.72169       -0.66365       -0.98670
O          2.43959       -0.39477        1.46485
H          1.44091       -0.51528        1.30303
C          4.82025       -0.19687        0.54483
H          5.41516        0.15221       -0.29967
H          5.08520        0.34400        1.45304
H          4.92605       -1.27271        0.67845
N         -0.42121        2.47032        0.03502
H          0.12145        3.04549        0.67162
C         -0.03227        2.76529       -1.34872
H          1.03620        2.60831       -1.53996
H         -0.60030        2.11348       -2.01593
H         -0.28343        3.80474       -1.58276
H         -0.17161        1.50736        0.25082
H         -5.37647        0.10130        0.72679
H         -4.32118       -1.08456        1.54433
H         -3.78913        1.33848        2.16524
H         -2.41940        0.48690        1.44725
H         -3.97780        2.57809        0.18733
H         -2.35565        2.21141        0.06084
H         -4.61195       -1.17254       -1.05179
H         -3.51976        0.11496       -0.97048
C         -4.34910       -0.25592        0.83507
C         -3.41412        0.89343        1.23562
N         -3.88289       -0.73763       -0.49343
N         -3.30960        1.81958        0.11744
