40
1sa1msa2eda_25.log	Energy: -1095295.5617817
S         -2.63880       -1.48021       -0.17273
O         -1.88875       -2.31251        0.78444
O         -3.60006       -0.53563        0.39801
O         -1.72927       -0.84638       -1.16501
O         -3.50608       -2.58196       -0.99606
H         -4.22067       -2.11670       -1.45038
S          2.16000        1.21453       -0.52209
O          1.72643        0.10147       -1.40960
O          2.16912        0.80444        0.90587
O          1.38705        2.46134       -0.76382
C          3.84657        1.59419       -0.96038
H          4.18813        2.41030       -0.32349
H          4.45006        0.70017       -0.79806
H          3.86897        1.88630       -2.01032
H          1.42714       -3.69355        1.06782
H          1.43408       -3.48380       -0.70238
H          3.74164       -3.49234        0.28936
H          3.37853       -1.98252       -0.55425
H          4.28646       -2.09033        1.97557
H          3.27979       -0.87466        1.48616
H         -0.21451       -2.07230        0.50270
H          1.08417       -1.27921        1.21324
C          1.66908       -3.00902        0.25250
C          3.13312       -2.58433        0.33184
N          0.79319       -1.82105        0.39297
N          3.37645       -1.88294        1.58773
H          0.91147       -1.17821       -0.41585
H         -2.20791        1.26696        1.16385
H         -0.42578        1.37208        1.24879
H         -1.49565        3.33516        2.38615
H         -0.50155        3.81303        1.00209
H         -3.43334        3.67446        1.01815
H         -2.47600        4.93760        0.60396
H         -1.45727        0.83197       -0.97555
H         -1.97009        2.45890       -0.97891
C         -1.33033        1.84159        0.85632
C         -1.42275        3.29807        1.29166
N         -1.26826        1.79903       -0.62837
N         -2.54616        3.92750        0.59496
H         -0.31530        2.10073       -0.92505
