36
1sa1msa1ma1tma_101.log	Energy: -1025809.3563849
S          0.20720       -0.21535       -0.30825
O          0.61699       -0.53888        1.06360
O         -0.75099        0.91279       -0.39382
O          1.37277       -0.04254       -1.21325
O         -0.53580       -1.49214       -0.92451
H         -1.44505       -1.54426       -0.54021
S         -3.82697       -0.10595        0.23646
O         -5.11184       -0.17140        0.89287
O         -3.04868       -1.34222        0.08770
O         -2.95428        0.97083        1.00061
H         -2.03400        0.99125        0.59930
C         -4.00455        0.60958       -1.38463
H         -4.58732       -0.08845       -1.98652
H         -4.52627        1.56056       -1.27898
H         -3.00623        0.75070       -1.80288
N          3.07651        2.33720       -0.55374
H          3.51426        3.07634       -1.09410
C          2.28791        2.91704        0.53922
H          1.53169        3.64187        0.21218
H          1.76464        2.11618        1.06945
H          2.95571        3.41227        1.25132
H          2.44855        1.83709       -1.18020
N          3.55566       -0.84444        0.16321
C          3.22294       -2.28445        0.30214
H          2.32193       -2.36566        0.91034
H          3.02924       -2.69632       -0.68861
H          4.06232       -2.80208        0.77172
C          4.71891       -0.61406       -0.72498
H          4.51474       -1.06880       -1.69504
H          4.84033        0.46435       -0.83575
H          5.60773       -1.06593       -0.27863
C          3.73446       -0.19174        1.48521
H          3.94846        0.86184        1.30659
H          2.80152       -0.29683        2.03860
H          4.56188       -0.67715        2.00845
H          2.72374       -0.40538       -0.31203
