30
1sa1msa1a1dma_33.log	Energy: -976497.8925585
S          1.80496       -0.11486       -0.42733
O          1.31879        1.30466       -0.30649
O          1.30216       -0.81501       -1.60332
O          3.37001        0.01512       -0.58779
O          1.54290       -0.85169        0.84070
H          3.70580        0.69452        0.08976
H          0.19378       -1.75540        0.56239
S         -2.13869        1.03868       -0.00244
O         -2.02040        0.81483        1.43419
O         -2.21502       -0.18165       -0.82497
O         -1.03861        1.99606       -0.53694
H         -0.04274        1.64177       -0.43734
C         -3.57736        2.01849       -0.34853
H         -4.44163        1.44750       -0.00846
H         -3.49186        2.95603        0.20004
H         -3.62457        2.19292       -1.42289
N          3.90461        1.91906        1.20572
H          3.00562        2.37804        1.07371
H          4.64284        2.59764        1.05592
H          3.95437        1.59218        2.16479
N         -0.68663       -2.25728        0.26990
C         -1.48386       -2.58076        1.47082
C         -0.31635       -3.41224       -0.57447
H         -1.21030       -1.56051       -0.29247
H         -0.89770       -3.22992        2.12293
H         -1.72074       -1.64591        1.98057
H         -2.40409       -3.08507        1.17082
H          0.25967       -4.11868        0.02517
H         -1.22146       -3.89184       -0.95107
H          0.29374       -3.03834       -1.39687
