28
1sa1msa1eda_127.log	Energy: -975728.7406544
S         -0.56833        0.28450       -0.57514
O         -0.87921       -1.17292       -0.65665
O          0.64892        0.61841       -1.34224
O         -1.73356        1.12845       -0.84037
O         -0.23692        0.57712        0.97154
H          0.66092        0.21870        1.17897
S          3.37416       -0.22129        0.31473
O          4.63098       -0.87497        0.59563
O          2.29161       -0.32998        1.30191
O          2.86049       -0.75541       -1.08375
H          1.96091       -0.35718       -1.27883
C          3.63957        1.51189        0.00508
H          3.96494        1.96285        0.94310
H          4.41150        1.60423       -0.75866
H          2.69592        1.94394       -0.33279
H         -3.53920       -0.40416       -1.27534
H         -4.82716       -1.57376       -0.88850
H         -5.35543        0.96122       -0.53180
H         -5.74352       -0.10502        0.82739
H         -3.27662        1.48953        0.63831
H         -4.46794        1.59423        1.79213
H         -2.23915       -1.51094        0.06680
H         -3.14906       -0.75154        1.27458
C         -4.15759       -0.81749       -0.47791
C         -4.91988        0.30978        0.23580
N         -3.21647       -1.44537        0.49839
N         -3.99651        0.97525        1.14575
H         -3.52971       -2.34344        0.85573
