24
1sa1msa2a_67.log	Energy: -927167.4449705
S          2.04447       -0.02442       -0.26422
O          1.96986       -0.11779        1.19667
O          1.08621       -0.89289       -0.98921
O          2.02481        1.36925       -0.76374
O          3.50268       -0.62732       -0.61392
H          3.59089       -0.67670       -1.57600
S         -2.28577        0.24084       -0.21541
O         -3.35927        1.06469       -0.72616
O         -1.44578        0.79135        0.86638
O         -1.36608       -0.14132       -1.43742
H         -0.43237       -0.42868       -1.18941
C         -2.90786       -1.31365        0.36068
H         -3.58501       -1.09563        1.18780
H         -3.44709       -1.77639       -0.46638
H         -2.05142       -1.91939        0.69027
N          0.67012        2.36538        1.34091
H          1.17847        1.72817        1.96256
H         -0.26000        1.92291        1.15257
H          0.58650        3.30101        1.72549
H          1.20717        2.32990        0.44409
N         -0.05825       -2.68689        1.18385
H          0.08527       -3.52961        1.73026
H          0.46044       -1.93478        1.63174
H          0.39252       -2.81891        0.28291
