32
1sa1msa1a1eda_266.log	Energy: -1011225.0353850
S          0.45427       -0.79734       -0.96717
O          0.23144       -1.85256        0.02507
O          0.21157        0.56512       -0.37099
O          1.77523       -0.83656       -1.62075
O         -0.59115       -0.96808       -2.15032
H         -1.49687       -0.85105       -1.77491
S         -3.19260        0.22505        0.41829
O         -3.59748       -0.66021        1.48970
O         -2.92749       -0.35173       -0.90670
O         -1.95665        1.10109        0.85716
H         -1.09674        0.84461        0.36613
C         -4.42880        1.48710        0.21941
H         -5.35156        0.98485       -0.07256
H         -4.55448        1.99262        1.17678
H         -4.09930        2.18005       -0.55379
N          2.55137       -2.56472        1.85490
H          3.07112       -3.39360        1.58367
H          1.68237       -2.55958        1.31121
H          2.29656       -2.67791        2.83114
H          4.48972        1.17700        1.58244
H          5.05098        0.32449        0.11806
H          4.53237        2.80708       -0.23998
H          3.64383        1.72091       -1.31288
H          2.47298        3.57727        0.27872
H          1.68634        2.21134       -0.20422
H          3.17925       -0.94715        1.28361
H          2.27083        0.44780        1.06556
C          4.21244        0.85256        0.57709
C          3.75078        2.04340       -0.26863
N          3.07142       -0.08028        0.69559
N          2.50595        2.56729        0.28351
H          2.76445       -0.41297       -0.24749
