28
1sa1msa1eda_125.log	Energy: -975727.4315692
S          0.78726        1.69885       -0.15660
O         -0.58617        2.26469       -0.12993
O          1.86491        2.63414        0.06084
O          0.85545        0.69729        1.13743
O          0.96232        0.79080       -1.32841
H          0.06914        0.11278        1.11183
H          1.12269       -0.72291       -1.03756
S         -2.54596       -0.50231        0.22466
O         -3.25699       -0.29463        1.46946
O         -1.16824       -1.03327        0.33116
O         -2.53093        0.77386       -0.67681
H         -1.73113        1.40847       -0.46847
C         -3.48521       -1.59299       -0.81562
H         -4.46818       -1.14562       -0.96249
H         -2.96607       -1.71137       -1.76593
H         -3.57314       -2.54339       -0.28848
H          3.19335       -2.87299       -0.90138
H          3.19938       -1.40457       -1.92081
H          4.60825       -1.18715        0.20521
H          3.35161        0.03816        0.04617
H          3.51721       -1.97307        2.06145
H          2.51555       -0.66029        1.96440
H          0.92073       -2.37780       -1.39285
H          1.22125       -1.90195        0.17875
C          2.91202       -1.81795       -0.95253
C          3.52529       -1.02888        0.21058
N          1.43735       -1.72240       -0.81292
N          2.89452       -1.45289        1.45815
