27
1sa1msa1a1ma_118.log	Energy: -951828.6768096
S         -1.01957       -0.90784       -0.30198
O         -0.49533        0.48365       -0.50034
O         -2.32310       -1.10372       -0.94079
O         -0.02081       -1.87775       -1.06165
O         -1.01735       -1.26891        1.13598
H          0.90820       -1.65156       -0.81114
H         -2.68663       -0.94464        1.66952
S          2.93687        0.31958       -0.03834
O          3.68658        0.95681       -1.10141
O          2.42754       -1.04011       -0.26503
O          1.74789        1.23720        0.44508
H          0.85158        0.92263        0.06923
C          3.92710        0.29490        1.43647
H          4.81916       -0.28993        1.21023
H          4.19431        1.32282        1.68114
H          3.34809       -0.16640        2.23560
N         -3.64032       -0.58047        1.44988
H         -4.29377       -0.69322        2.21819
H         -3.92866       -1.10472        0.62128
H         -3.49255        0.46676        1.13133
N         -3.03746        1.83726        0.40454
H         -3.12088        2.70454        0.92649
C         -3.72846        1.94089       -0.89279
H         -3.36940        2.77894       -1.49869
H         -3.55275        1.01435       -1.44372
H         -4.80281        2.06218       -0.72849
H         -2.04134        1.68088        0.22653
