24
1sa1msa2a_39.log	Energy: -927173.4291204
S          1.83280        0.41142       -0.19661
O          2.13565       -0.48780       -1.30462
O          0.65568       -0.04723        0.62494
O          3.06841        0.42040        0.79211
O          1.63461        1.83949       -0.55284
H          3.54803       -0.47356        0.72731
H          0.22526        2.31182       -0.08328
S         -2.49973       -0.40036        0.03910
O         -2.42102        0.58084       -1.05611
O         -2.61258        0.18043        1.37527
O         -1.31128       -1.40894       -0.04144
H         -0.41490       -0.91804        0.18334
C         -3.85532       -1.49783       -0.27340
H         -4.76351       -0.89491       -0.25528
H         -3.70928       -1.95278       -1.25260
H         -3.87202       -2.25026        0.51434
N         -0.78052        2.47177        0.26019
H         -0.88958        1.98008        1.15047
H         -1.43266        2.01198       -0.39966
H         -0.99749        3.45828        0.36610
N          4.20883       -1.94745        0.31605
H          3.75840       -2.03763       -0.59304
H          3.94254       -2.74230        0.88698
H          5.21406       -1.97047        0.18368
