33
1sa1msa1ma1dma_100.log	Energy: -1001153.9474759
S         -1.08769       -1.45694       -0.20701
O         -2.25929       -1.69126       -1.04275
O         -0.53324       -2.58716        0.53599
O          0.04004       -0.79290       -0.99510
O         -1.48908       -0.35702        0.88159
H         -2.26845        0.21235        0.50274
S          1.41640        2.17523       -0.14587
O          1.87521        3.49919       -0.50379
O          2.40465        1.10547        0.03479
O          0.35665        1.72585       -1.22589
H          0.17819        0.72361       -1.17155
C          0.45341        2.26155        1.34920
H          1.13604        2.51637        2.16091
H         -0.29425        3.04462        1.22081
H         -0.02571        1.29282        1.50943
N         -3.51129        0.88958       -0.21555
H         -3.33809        1.79263       -0.64563
C         -4.72029        0.91382        0.61491
H         -5.62726        1.16819        0.05469
H         -4.85432       -0.07113        1.06716
H         -4.59155        1.64070        1.42027
H         -3.59979        0.20472       -0.96504
N          2.35529       -1.64873        0.03910
C          2.59352       -2.97105       -0.57813
C          2.29520       -1.67412        1.52010
H          3.04210       -0.95226       -0.25587
H          1.75923       -3.61826       -0.30530
H          2.62377       -2.85225       -1.66115
H          3.53651       -3.38406       -0.21580
H          1.44424       -2.29075        1.80900
H          3.22976       -2.07822        1.91352
H          2.15360       -0.65053        1.86429
H          1.43793       -1.27564       -0.33636
