36
1sa1msa2dma_04.log	Energy: -1025831.0559698
S          2.82801        0.04797        0.01744
O          3.05858       -1.27140       -0.57367
O          3.06785        1.19885       -0.85053
O          1.50517        0.12470        0.71907
O          3.84747        0.18530        1.28315
H          4.75015        0.17656        0.93693
S         -2.85521       -0.13961        0.16063
O         -2.79367        0.76867        1.31534
O         -2.58016       -1.56836        0.48096
O         -1.98579        0.33253       -0.97009
C         -4.52719       -0.10579       -0.45983
H         -5.18552       -0.46790        0.33008
H         -4.77105        0.92443       -0.71988
H         -4.58422       -0.75132       -1.33623
N          0.03728       -2.12588        0.00049
C          0.09759       -2.21677       -1.47669
C          0.64895       -3.27251        0.70266
H          0.53797       -1.26343        0.29800
H         -0.41232       -3.12777       -1.79446
H         -0.41982       -1.34644       -1.88208
H          1.14434       -2.22713       -1.78233
H          0.13706       -4.18989        0.40790
H          1.70600       -3.31808        0.43700
H          0.54294       -3.12016        1.77678
H         -0.96501       -1.99605        0.27852
N         -0.14175        2.16033       -0.12319
C         -0.58036        3.02326        0.99452
C          0.43569        2.88694       -1.27373
H          0.55593        1.47104        0.23167
H         -1.29914        3.75420        0.62087
H         -1.06607        2.39339        1.73916
H          0.28920        3.53162        1.41372
H         -0.31607        3.56738       -1.67731
H          1.31821        3.43675       -0.94691
H          0.73923        2.16252       -2.02795
H         -0.93906        1.56226       -0.44925
