24
1sa1msa2a_83.log	Energy: -927162.4473909
S         -1.75199        0.54700        0.30537
O         -1.03479        0.25553       -0.94935
O         -1.68646        1.89770        0.80290
O         -3.22570        0.10756        0.16182
O         -1.25189       -0.49751        1.38797
H         -3.27092       -0.85159       -0.27866
H         -0.25512       -0.46765        1.43958
S          2.26650       -0.66211        0.14626
O          3.08178       -1.84745        0.27518
O          1.36328       -0.29516        1.25038
O          1.38811       -0.83259       -1.17085
H          0.52943       -0.33788       -1.09887
C          3.26872        0.75207       -0.21201
H          3.86257        0.95303        0.68079
H          3.91108        0.49473       -1.05456
H          2.59097        1.58369       -0.44811
N         -3.18161       -2.23239       -0.92749
H         -4.04701       -2.57003       -1.33705
H         -2.86075       -2.91936       -0.25099
H         -2.48182       -2.17247       -1.66284
N          0.83124        2.83261       -0.93091
H          0.28115        2.45473       -1.69653
H          1.06993        3.78914       -1.17169
H          0.20391        2.86674       -0.13069
