41
1sa1msa1tma1eda_36.log	Energy: -1085219.1218444
S         -2.94609       -0.78421       -0.02183
O         -2.57191       -0.03275       -1.22003
O         -3.00739       -2.24101       -0.14146
O         -2.15095       -0.35377        1.17069
O         -4.47181       -0.28124        0.27773
H         -4.88138       -0.92627        0.86894
S          3.03433        0.60533       -0.07444
O          2.68267        1.94789       -0.55097
O          3.29372       -0.41558       -1.10457
O          1.99039        0.09548        0.91263
C          4.52845        0.76255        0.89067
H          5.31750        1.10516        0.22062
H          4.35392        1.49238        1.68128
H          4.77799       -0.21195        1.31048
H          0.43368        2.73900       -0.86762
H         -0.64010        1.39614       -1.33582
H         -1.81429        3.58833       -1.61669
H         -2.60338        2.53519       -0.44213
H         -0.96288        4.88302        0.18989
H         -2.45219        4.49324        0.74504
H          0.57915        1.17973        0.85983
H         -0.45857        2.41756        1.39237
C         -0.49472        2.21500       -0.63181
C         -1.70709        3.13550       -0.62324
N         -0.34305        1.64140        0.73174
N         -1.55883        4.10872        0.46318
H         -1.08731        0.92586        0.92404
N          1.02117       -2.27819        0.03110
C          2.14622       -3.21775       -0.19283
H          2.85549       -2.74310       -0.87093
H          2.63043       -3.41951        0.76359
H          1.75408       -4.14574       -0.61479
C          0.05861       -2.78775        1.04268
H          0.61037       -3.02656        1.95307
H         -0.69047       -2.02058        1.24349
H         -0.43519       -3.67748        0.64887
C          0.35649       -1.92213       -1.25158
H         -0.41321       -1.17371       -1.06629
H          1.11680       -1.51991       -1.92163
H         -0.11310       -2.81411       -1.66975
H          1.43051       -1.38287        0.40695
