35
1sa1msa1ma1eda_229.log	Energy: -1035885.0430975
S         -2.13120       -0.86855       -0.35909
O         -2.75061        0.41432       -0.76189
O         -2.84729       -2.07424       -0.72030
O         -0.73857       -0.96905       -1.20413
O         -1.68655       -0.81977        1.06770
H         -0.24550       -0.13307       -1.05273
H         -0.68014       -2.11023        1.34967
S         -0.17271        2.51971        0.14828
O          0.53100        3.77816        0.05460
O          0.51967        1.31029       -0.34689
O         -1.54452        2.66360       -0.59701
H         -2.03551        1.77101       -0.67466
C         -0.63599        2.20086        1.83534
H          0.28698        2.13508        2.41364
H         -1.24342        3.03841        2.17841
H         -1.18794        1.25742        1.86290
N          0.10907       -2.80969        1.35674
H          0.98891       -2.20881        1.17111
C         -0.08658       -3.82421        0.29338
H          0.73187       -4.54444        0.32096
H         -1.04317       -4.32606        0.43500
H         -0.10375       -3.30482       -0.66403
H          0.16500       -3.23498        2.27892
H          3.23930       -2.22319       -0.60611
H          1.88059       -1.36915       -1.34015
H          3.99752       -0.32069       -2.05322
H          3.06047        0.79409       -1.04919
H          5.45302       -0.66657       -0.21483
H          5.11345        0.92402       -0.06096
H          2.89526       -0.84796        1.34555
H          1.56143       -0.19960        0.67653
C          2.69518       -1.27043       -0.61633
C          3.63393       -0.13812       -1.03150
N          2.11750       -1.05668        0.71930
N          4.70541       -0.00278       -0.04259
