40
1sa1msa2eda_135.log	Energy: -1095290.4945423
S          1.12530       -1.84372       -0.49583
O          1.14123       -0.69666       -1.62459
O          0.19587       -2.89506       -0.94399
O          2.55131       -2.23989       -0.45686
O          0.67404       -1.19588        0.75673
H          3.40988       -0.87536       -0.25394
H         -1.33844       -1.20034        0.83096
S         -1.07700        1.81814       -0.51370
O          0.28236        2.36992       -0.43921
O         -1.72802        1.55305        0.78936
O         -1.15439        0.59720       -1.40269
H          0.28034       -0.18737       -1.60480
C         -2.08925        3.03116       -1.34891
H         -1.64697        3.22937       -2.32532
H         -3.09473        2.62300       -1.45908
H         -2.10209        3.93627       -0.74067
H          3.84831        2.09339       -0.28482
H          2.37771        1.21349       -0.79899
H          2.11141        2.28814        1.46568
H          1.88602        0.54293        1.47549
H          4.17938        1.98945        2.56475
H          3.40549        0.67491        3.14991
H          4.65644        0.01775       -0.93249
H          4.51093       -0.04634        0.74350
C          3.18311        1.25256       -0.06759
C          2.63085        1.33320        1.35150
N          4.00228        0.00363       -0.15418
N          3.73362        1.11768        2.30025
H         -3.90971       -2.39797       -0.08795
H         -3.00296       -2.93248        1.35061
H         -4.88297       -1.45827        1.96288
H         -3.34155       -0.72494        2.41088
H         -5.18058        0.58151        1.04317
H         -3.58261        0.83313        0.73993
H         -1.47567       -2.25989       -0.38309
H         -2.15369       -0.74625       -0.50549
C         -3.26921       -2.07047        0.73342
C         -3.97688       -0.99992        1.55459
N         -2.01961       -1.54679        0.13826
N         -4.33023        0.13900        0.71899
