38
1sa1msa1dma1eda_382.log	Energy: -1060532.0539908
S          0.63211       -1.44629        0.21269
O         -0.19371       -0.80703        1.24964
O          1.65796       -2.37561        0.69515
O         -0.32179       -2.33080       -0.69625
O          1.23969       -0.40637       -0.69591
H         -1.13431       -1.80946       -0.92988
H          2.75519       -0.81489       -0.87013
S         -3.39851       -0.23960       -0.15531
O         -4.72340       -0.81786       -0.14547
O         -2.41240       -0.73878       -1.12849
O         -2.78713       -0.39392        1.29917
H         -1.79799       -0.53730        1.27328
C         -3.50699        1.51716       -0.36003
H         -3.92525        1.69440       -1.35197
H         -4.17722        1.89666        0.41177
H         -2.49125        1.92699       -0.26763
N         -0.33580        2.25184       -0.05013
C         -0.04188        2.59690        1.33164
C          0.15085        3.22922       -1.00407
H          0.05138        1.33767       -0.26613
H         -0.59370        3.50259        1.60951
H         -0.36236        1.78232        1.98434
H          1.03023        2.78044        1.51948
H         -0.37975        4.17882       -0.86879
H          1.23227        3.44317       -0.90704
H         -0.03708        2.87741       -2.02214
H          4.68465        1.10596       -1.28877
H          5.40353        1.50304        0.27071
H          5.57316       -0.85585        0.17106
H          4.14910       -0.56256        1.20333
H          4.16355       -1.44423       -1.60899
H          3.43140       -2.15331       -0.27084
H          3.33846        2.66574        0.10670
H          2.47973        1.27210       -0.06788
C          4.53599        1.02644       -0.19573
C          4.56203       -0.44482        0.19962
N          3.33666        1.67308        0.30680
N          3.71270       -1.26806       -0.71372
