36
1sa1msa2dma_66.log	Energy: -1025815.8885953
S          0.06430       -1.34932       -0.51032
O         -0.18138       -0.00354       -1.16792
O         -1.04860       -2.25945       -0.72678
O          1.41936       -1.81618       -0.78407
O          0.11248       -0.99470        1.07436
H         -0.73679       -0.55116        1.31350
S         -3.24160        0.62314        0.37470
O         -4.26294        1.60394        0.66483
O         -2.20035        0.37959        1.38454
O         -2.54533        1.04476       -0.98179
H         -1.63715        0.61284       -1.08141
C         -3.99470       -0.93813       -0.01663
H         -4.49054       -1.28812        0.88958
H         -4.71926       -0.76986       -0.81323
H         -3.20702       -1.62901       -0.32609
N          2.30915        1.13323       -1.06654
C          2.32694        2.60345       -0.97607
C          3.15789        0.56696       -2.13330
H          2.60946        0.70994       -0.11332
H          1.98242        3.03955       -1.91562
H          1.66165        2.91435       -0.16960
H          3.34283        2.94383       -0.76533
H          2.85556        0.97441       -3.09997
H          4.20244        0.81854       -1.93773
H          3.01950       -0.51454       -2.12703
H          1.32883        0.79503       -1.19820
N          2.96539        0.00606        1.34670
C          3.27939        0.92935        2.43414
C          3.97718       -1.03592        1.16606
H          2.06486       -0.43982        1.52590
H          4.19743        1.47750        2.19702
H          2.46657        1.65096        2.55130
H          3.42957        0.41643        3.39468
H          4.91466       -0.58171        0.82674
H          4.18060       -1.58466        2.09631
H          3.62336       -1.74013        0.41063
