38
1sa1msa1dma1eda_171.log	Energy: -1060549.8386822
S          1.30328        0.11517        0.64307
O          0.50597       -0.43442       -0.62882
O          2.32451        0.99054        0.03531
O          0.33926        0.79416        1.51399
O          1.93247       -1.07930        1.29239
H         -1.23918        1.23274        0.54296
H          3.10554       -1.51016        0.49934
S         -2.88789       -1.27657       -0.03704
O         -3.25040       -0.31187       -1.11927
O         -3.01280       -0.68538        1.30228
O         -1.55003       -1.90568       -0.28727
H         -0.28505       -1.04296       -0.40127
C         -4.04960       -2.62373       -0.16298
H         -5.04912       -2.21665       -0.00907
H         -3.95891       -3.06654       -1.15474
H         -3.80546       -3.35159        0.61091
N          3.96771       -1.72592       -0.14192
C          5.02104       -0.73255        0.17683
C          3.50653       -1.67588       -1.55178
H          4.28902       -2.66583        0.08391
H          4.58152        0.25621        0.03747
H          5.31178       -0.85476        1.22033
H          5.88222       -0.87879       -0.47811
H          3.12587       -0.67185       -1.74050
H          4.33643       -1.91039       -2.22130
H          2.69408       -2.39078       -1.68006
H         -2.24432        3.58332       -0.94231
H         -2.38097        3.30403        0.81237
H         -0.42226        4.82084        0.19043
H          0.06825        3.35992        1.05690
H          0.78492        4.06575       -1.59898
H          1.31292        2.77626       -0.69791
H         -2.45457        1.17163       -0.61598
H         -0.88468        1.57654       -1.02296
C         -1.75319        3.15080       -0.06733
C         -0.34464        3.73114        0.11387
N         -1.60972        1.69977       -0.30267
N          0.49817        3.30506       -0.99948
