36
1sa1msa2dma_50.log	Energy: -1025814.8350006
S         -1.24128        0.51236        0.70615
O         -1.82444       -0.39679        1.68655
O         -0.42649       -0.21428       -0.34446
O         -2.41432        1.19196       -0.10737
O         -0.44423        1.63687        1.24543
H         -3.18609        0.49464       -0.19494
H          0.87461        1.83092        0.29690
S          2.68343       -1.25065       -0.01484
O          3.05355       -0.57259        1.22118
O          2.75033       -0.41598       -1.22960
O          1.28680       -1.92844        0.08683
H          0.50376       -1.21894       -0.03793
C          3.71299       -2.67627       -0.24758
H          3.59686       -3.32227        0.62235
H          3.40135       -3.18258       -1.16034
H          4.73954       -2.31838       -0.32965
N         -4.19016       -0.70845       -0.16054
C         -3.73048       -1.71592       -1.11759
C         -5.60761       -0.38401       -0.29046
H         -3.98409       -1.02970        0.78374
H         -3.84983       -1.32383       -2.13190
H         -2.66929       -1.91052       -0.94819
H         -4.29041       -2.65800       -1.03729
H         -5.78304        0.07236       -1.26914
H         -6.25313       -1.26937       -0.20095
H         -5.88788        0.33870        0.47890
N          1.61479        2.05256       -0.42227
C          2.75019        2.72711        0.23947
C          0.95857        2.82732       -1.49554
H          1.94359        1.14775       -0.80504
H          2.39014        3.63477        0.72573
H          3.16262        2.04035        0.97935
H          3.50939        2.97445       -0.50433
H          0.56557        3.75369       -1.07482
H          1.68172        3.04529       -2.28316
H          0.13627        2.22934       -1.88884
