42
1sa1msa2tma_52.log	Energy: -1075123.3066674
S          2.11999       -0.79219       -0.51902
O          1.29438       -1.97465       -0.20762
O          3.29961       -1.04609       -1.34261
O          1.21857        0.19136       -1.40403
O          2.46686       -0.02433        0.72269
H          0.32375        0.27078       -0.99103
H          3.84332        0.59363        0.52111
S         -1.90530       -0.89873        0.40851
O         -2.73875       -1.61798       -0.53883
O         -1.15843        0.26466       -0.09988
O         -0.89804       -1.87327        1.13582
H         -0.02107       -1.93633        0.63032
C         -2.88658       -0.37689        1.78486
H         -3.66463        0.27833        1.36847
H         -3.32514       -1.26656        2.23750
H         -2.24013        0.14761        2.48766
N          4.81533        1.04022        0.36949
C          4.75952        1.73754       -0.93959
H          4.52026        0.99894       -1.70472
H          3.96670        2.48535       -0.90287
H          5.72254        2.21522       -1.13649
C          5.03989        1.97781        1.49048
H          4.25162        2.73104        1.48270
H          4.99881        1.42452        2.42923
H          6.01609        2.45637        1.37994
C          5.79879       -0.06977        0.35590
H          5.76399       -0.57809        1.32009
H          5.50654       -0.76623       -0.43020
H          6.79887        0.33366        0.17824
N         -5.15747        1.08635       -0.07507
C         -5.87555       -0.14599       -0.36317
H         -5.16599       -0.91549       -0.67832
H         -6.38674       -0.49490        0.54008
H         -6.63377       -0.01447       -1.15832
C         -6.05339        2.12140        0.40726
H         -6.56845        1.77745        1.30967
H         -5.48253        3.02028        0.65995
H         -6.81946        2.39975       -0.34186
C         -4.40365        1.53656       -1.23591
H         -3.80754        2.41515       -0.97197
H         -3.72132        0.74808       -1.56201
H         -5.06378        1.80316       -2.08319
