36
1sa1msa2dma_113.log	Energy: -1025812.3714738
S         -2.37440        0.24831        0.00509
O         -2.99044       -0.10515        1.27770
O         -2.13405        1.71985       -0.14171
O         -1.20126       -0.53472       -0.38883
O         -3.46091       -0.11291       -1.15469
H         -4.31674        0.24243       -0.87951
S          1.29756        1.83481       -0.13481
O          1.98135        0.78110       -0.88329
O          0.91824        1.48907        1.24369
O          0.08754        2.40049       -0.91674
H         -0.87784        2.07391       -0.56993
C          2.35715        3.26075       -0.08797
H          3.27654        2.96952        0.42052
H          2.56318        3.56097       -1.11523
H          1.84353        4.05302        0.45582
N          0.78467       -1.34894        1.45320
C          2.15170       -1.44517        1.99515
C         -0.23736       -2.08468        2.22293
H          0.53355       -0.35067        1.38747
H          2.46159       -2.49222        2.00542
H          2.81383       -0.86801        1.34891
H          2.18157       -1.03850        3.00752
H         -0.00656       -3.15149        2.18945
H         -0.23677       -1.73861        3.25839
H         -1.21173       -1.89251        1.77503
H          0.81188       -1.69947        0.42826
N          1.02959       -2.12891       -1.16284
C          0.07739       -3.13602       -1.62409
C          2.40701       -2.40976       -1.55409
H          0.75575       -1.21590       -1.52189
H          0.28484       -4.09056       -1.12789
H         -0.93124       -2.80936       -1.36503
H          0.13279       -3.29844       -2.71051
H          2.75469       -3.31795       -1.04919
H          2.51648       -2.56233       -2.63800
H          3.04109       -1.57151       -1.25708
