30
1sa1msa2ma_116.log	Energy: -976482.3920329
S         -1.60037        0.28908        0.64054
O         -2.70869        0.22438        1.58895
O         -0.24890        0.47078        1.20247
O         -1.51613       -1.14054       -0.08951
O         -1.84267        1.29044       -0.45586
H         -2.46774       -1.46061       -0.24829
H         -0.49524        1.89990       -0.85218
S          2.91807       -0.64335       -0.09358
O          2.32103        0.11633       -1.18703
O          3.60652        0.06406        0.97157
O          4.00102       -1.63642       -0.78721
H          4.85093       -1.50287       -0.34340
C          1.73789       -1.79120        0.54575
H          1.33460       -2.36248       -0.28996
H          2.24727       -2.42790        1.26864
H          0.94812       -1.18666        1.00640
N         -4.13540       -1.63307       -0.28662
H         -4.55945       -2.55196       -0.35227
C         -4.70207       -0.70883       -1.27693
H         -5.78350       -0.56215       -1.16704
H         -4.20261        0.25742       -1.17430
H         -4.49963       -1.08991       -2.28102
H         -4.29370       -1.27648        0.65397
N          0.50138        2.28292       -1.02631
H          1.12626        1.46317       -1.08508
C          0.91574        3.15996        0.09445
H          1.93880        3.50321       -0.06123
H          0.23348        4.00804        0.15131
H          0.84409        2.56927        1.00711
H          0.52638        2.76746       -1.92031
