32
1sa1msa1a1eda_231.log	Energy: -1011227.9432764
S          0.39771        0.71627       -0.51838
O         -0.75548        1.13670       -1.33754
O          1.58837        1.55927       -0.65409
O         -0.01885        0.92902        1.02673
O          0.69051       -0.73535       -0.65499
H         -0.91043        0.52978        1.16857
H          1.87726       -1.13469        0.44493
S         -3.57199       -0.17781        0.19850
O         -4.57625        0.82363        0.49274
O         -2.43237       -0.30389        1.12129
O         -3.03122       -0.03170       -1.27304
H         -2.12094        0.42341       -1.30993
C         -4.35299       -1.76847        0.07530
H         -4.80347       -1.97800        1.04586
H         -5.11888       -1.70937       -0.69779
H         -3.59469       -2.50883       -0.17593
N          3.28051        1.36691        1.82218
H          3.23220        1.77698        2.74835
H          2.59290        1.82972        1.22555
H          4.19450        1.55379        1.41850
H          4.75665       -1.68177        0.97454
H          3.67599       -2.90266        0.25088
H          4.90815       -1.68277       -1.47186
H          3.16829       -1.41189       -1.62725
H          4.89017        0.55839       -1.66677
H          3.43973        0.76841       -0.94753
H          2.43819       -1.78558        1.88941
H          2.94615       -0.23682        1.44095
C          3.86403       -1.83133        0.36195
C          4.04887       -1.18759       -1.00918
N          2.71124       -1.22766        1.08353
N          4.31389        0.24355       -0.89566
