30
1sa1msa1a1dma_27.log	Energy: -976497.0115226
S         -1.83280        0.00459       -0.38101
O         -2.07608        1.37448       -0.86843
O         -1.06849       -0.82498       -1.37537
O         -1.17370       -0.03987        0.93654
O         -3.25799       -0.66305       -0.25847
H         -3.10906       -1.57037        0.17365
S          2.09876       -0.87615        0.05156
O          2.12562       -1.06648        1.49055
O          1.95363        0.51217       -0.43513
O          1.05620       -1.79390       -0.64366
H          0.13416       -1.32359       -0.93720
C          3.60818       -1.51366       -0.63938
H          4.43115       -0.95736       -0.19000
H          3.67660       -2.57109       -0.38423
H          3.58211       -1.37229       -1.71932
N         -2.42489       -2.89381        0.97292
H         -2.99861       -3.46761        1.58098
H         -1.72091       -2.42291        1.53860
H         -1.93610       -3.50364        0.32493
N          0.19173        2.52560        0.18649
C          0.06221        2.75341        1.64252
C          0.69743        3.67981       -0.58169
H          0.82311        1.71108        0.03033
H         -0.62911        3.57971        1.81530
H         -0.32745        1.83582        2.08261
H          1.04361        2.98936        2.05675
H          0.00718        4.51729       -0.47008
H          1.68478        3.95708       -0.20954
H          0.76611        3.39635       -1.63184
H         -0.73119        2.22029       -0.20268
