27
1sa1msa1a1ma_47.log	Energy: -951833.5101762
S          2.05997       -0.86621       -0.15584
O          1.07520        0.11446       -0.69677
O          3.19417       -1.15431       -1.01283
O          2.37213       -0.55600        1.25120
O          1.16235       -2.24528       -0.12119
H          1.75662       -2.97772       -0.33186
S         -2.32527       -0.41859        0.01811
O         -3.68561       -0.05990       -0.31314
O         -1.72367        0.15518        1.22984
O         -1.42637       -0.05530       -1.22912
H         -0.43740       -0.06964       -1.01842
C         -2.17377       -2.18483        0.13889
H         -2.76630       -2.49924        0.99884
H         -2.56629       -2.61789       -0.78104
H         -1.11833       -2.42737        0.27382
N          0.63332        1.47945        1.93562
H          1.34916        0.72603        1.84597
H          0.64626        1.89021        2.86397
H          0.82934        2.20532        1.17035
H         -0.28599        1.04703        1.74188
N          1.07079        3.04771       -0.29843
H          1.72493        3.82238       -0.34436
C         -0.21749        3.41682       -0.90257
H         -0.12725        3.75710       -1.94024
H         -0.88021        2.54840       -0.88823
H         -0.68383        4.21123       -0.31435
H          1.47736        2.26828       -0.81482
