30
1sa1msa2ma_69.log	Energy: -976493.1905045
S         -1.82482       -1.07667       -0.19161
O         -2.56330        0.18669       -0.32874
O         -1.04882       -1.50779       -1.35505
O         -1.02467       -1.09805        1.06951
O         -3.00635       -2.16597        0.01127
H         -2.63331       -3.04572       -0.13553
S          2.28754       -0.54631        0.30297
O          3.66371       -0.55247        0.74780
O          1.54923        0.72767        0.32516
O          1.49243       -1.60066        1.16282
H          0.49079       -1.44818        1.10264
C          2.18278       -1.19484       -1.34830
H          2.69406       -0.49085       -2.00625
H          2.68607       -2.16170       -1.35748
H          1.12595       -1.29538       -1.60788
N          0.41929        2.99884       -1.22374
H          0.52945        3.94510       -1.57258
C         -0.09773        2.10977       -2.27599
H          0.54014        2.07368       -3.16725
H         -0.19144        1.09723       -1.87641
H         -1.09627        2.43830       -2.57280
H          1.33369        2.66946       -0.92144
N         -0.90533        1.95573        0.99289
H         -1.68328        1.40453        0.57678
H         -0.16297        1.27233        1.18779
C         -1.31524        2.70154        2.19588
H         -0.45411        3.22795        2.60781
H         -2.08938        3.41960        1.92584
H         -1.70684        2.00361        2.93582
H         -0.50053        2.56149        0.22331
