32
1sa1msa1a1eda_23.log	Energy: -1011240.5391987
S          2.89519       -0.33166       -0.07081
O          3.05770        1.00333       -0.63889
O          1.94346       -0.39993        1.06790
O          2.63521       -1.39975       -1.06103
O          4.30455       -0.71547        0.64766
H          5.01532       -0.54422        0.01501
S         -2.60089       -0.88125       -0.08060
O         -2.07694       -1.99167       -0.93001
O         -2.87501        0.36474       -0.80776
O         -1.70364       -0.66959        1.10406
C         -4.15234       -1.46827        0.57530
H         -4.82666       -1.64147       -0.26369
H         -3.97092       -2.39446        1.12048
H         -4.55334       -0.70156        1.23851
N          0.38604       -2.57806       -0.01592
H          0.48245       -3.54493        0.27978
H          1.19322       -2.29554       -0.61359
H         -0.54934       -2.41847       -0.48011
H          0.43102       -1.95544        0.79841
H          0.95320        2.33610       -0.75682
H         -0.28287        1.13503       -1.18369
H         -1.07751        3.47004       -1.67638
H         -2.09253        2.61376       -0.51046
H         -0.15433        4.72737        0.12480
H         -1.72110        4.60607        0.57848
H          0.82245        0.96774        1.09066
H         -0.15371        2.32112        1.47748
C         -0.05293        1.97714       -0.52954
C         -1.10864        3.06766       -0.65646
N         -0.04639        1.49496        0.87806
N         -0.88255        4.07145        0.38780
H         -0.82304        0.81464        1.04292
