38
1sa1msa1dma1eda_100.log	Energy: -1060559.3257029
S         -0.08050       -1.98348       -0.37076
O          0.38599       -0.99257       -1.54396
O         -1.33222       -2.62092       -0.76340
O          1.07078       -2.91703       -0.24761
O         -0.20069       -1.12417        0.83989
H          2.31305       -2.10517        0.23198
H         -1.44033       -0.01595        0.94213
S          0.50263        2.35770       -0.10335
O          1.84432        1.80914        0.16460
O         -0.27582        2.69487        1.11898
O         -0.29986        1.50399       -1.03810
H          0.11147       -0.05084       -1.34772
C          0.74318        3.90397       -0.96296
H          1.33231        4.55757       -0.31930
H          1.27336        3.69804       -1.89309
H         -0.23409        4.34218       -1.16560
N          3.18836       -1.55998        0.52972
C          2.89336       -0.78763        1.76539
C          3.63065       -0.71711       -0.61138
H          3.89415       -2.26808        0.72726
H          2.16220       -0.01907        1.51463
H          2.48333       -1.47036        2.50927
H          3.81265       -0.32375        2.12763
H          2.88335        0.06296       -0.75969
H          4.59438       -0.26291       -0.37403
H          3.70564       -1.34638       -1.49805
H         -3.98531        1.50143        0.61248
H         -2.67396        1.56959       -0.59905
H         -4.52320       -0.19400       -1.02851
H         -2.85583       -0.75653       -1.11631
H         -4.80747       -1.71807        0.61648
H         -3.22503       -2.14438        0.51269
H         -1.60052        1.55397        1.43294
H         -2.61967        0.31005        2.04366
C         -3.15840        0.95010        0.15682
C         -3.62362       -0.38141       -0.43281
N         -2.15600        0.69992        1.22446
N         -3.86171       -1.36018        0.62906
