41
1sa1msa1tma1eda_210.log	Energy: -1085198.9620861
S         -0.33858       -0.25313        0.78291
O          0.95349       -0.84213        1.13020
O         -1.49368       -0.77886        1.53845
O         -0.30840        1.23883        0.78667
O         -0.54935       -0.68689       -0.75210
H          1.13010        1.75351        0.35756
H         -1.47788       -0.48363       -1.01898
S         -4.29267       -0.32443       -0.38684
O         -4.92044       -1.62044       -0.54965
O         -3.13592       -0.00924       -1.24000
O         -3.91183       -0.04904        1.11732
H         -2.95135       -0.32356        1.31539
C         -5.50914        0.94904       -0.61678
H         -5.89326        0.84172       -1.63156
H         -6.30353        0.79224        0.11276
H         -5.02982        1.91710       -0.47720
H          5.77036       -2.40293       -0.96533
H          6.18094       -1.64941        0.58105
H          4.16403       -3.04486        0.77320
H          3.80900       -1.35624        1.12626
H          3.07566       -2.76062       -1.32312
H          2.13252       -1.91254       -0.27962
H          6.26579       -0.06396       -1.25379
H          4.66972       -0.31130       -1.52975
C          5.44764       -1.64378       -0.23248
C          4.08418       -2.04453        0.32220
N          5.38508       -0.29780       -0.80725
N          3.05359       -1.95131       -0.71123
N          2.08972        2.04018       -0.00246
C          2.07854        3.50903       -0.17097
H          1.32238        3.77454       -0.91053
H          1.83196        3.97491        0.78354
H          3.06324        3.84304       -0.50623
C          3.08879        1.58764        1.00232
H          3.02920        2.23993        1.87439
H          2.82172        0.56991        1.28488
H          4.08698        1.59682        0.55896
C          2.26311        1.33849       -1.30176
H          2.36924        0.26577       -1.12081
H          1.38198        1.52674       -1.91622
H          3.16277        1.72310       -1.78781
