41
1sa1msa1tma1eda_31.log	Energy: -1085217.1549912
S          2.71024       -1.18979       -0.10880
O          2.86207       -2.63805       -0.20659
O          3.88040       -0.37383       -0.41836
O          1.44496       -0.68981       -0.71192
O          2.37678       -0.88697        1.49975
H          3.13700       -1.19537        2.01031
S         -2.74477        1.08108       -0.07676
O         -3.37683        0.14915       -1.02681
O         -2.08704        2.25893       -0.66482
O         -1.79794        0.34231        0.85323
C         -4.04303        1.69176        0.98754
H         -4.52665        0.84161        1.46915
H         -3.60132        2.35695        1.72964
H         -4.75403        2.23438        0.36386
H          1.20112        3.17541        1.56256
H          2.05446        1.61448        1.71352
H          3.51983        3.33309        0.64179
H          3.19507        1.96876       -0.42589
H          2.05367        4.65443       -0.66977
H          2.65453        3.66904       -1.83337
H         -0.21570        1.34363        0.78320
H          0.20400        2.32430       -0.47737
C          1.65300        2.34629        1.01026
C          2.73480        2.83839        0.05403
N          0.58503        1.68590        0.22890
N          2.13004        3.68886       -0.96818
H          0.95660        0.83240       -0.25377
N         -1.47993       -2.24264       -0.04982
C         -0.48700       -3.04003        0.71453
H          0.51964       -2.74365        0.42645
H         -0.64135       -2.86131        1.77916
H         -0.63900       -4.09720        0.48612
C         -2.86859       -2.68547        0.23427
H         -3.04172       -2.61983        1.30917
H         -3.55045       -2.01866       -0.29356
H         -2.98604       -3.71772       -0.10259
C         -1.19441       -2.24893       -1.51138
H         -1.92247       -1.59643       -1.99466
H         -0.18214       -1.87082       -1.65713
H         -1.28220       -3.27393       -1.87870
H         -1.43433       -1.24483        0.27322
