38
1sa1msa1dma1eda_369.log	Energy: -1060532.9424564
S         -1.10593       -1.45421        0.22576
O         -1.39582       -0.20450        0.97932
O          0.04644       -2.19219        0.77675
O         -2.32072       -2.25464        0.00181
O         -0.70111       -0.99572       -1.26033
H         -3.65904       -1.02683       -0.18990
H          0.21805       -0.63136       -1.24822
S          2.89038       -0.63860       -0.08497
O          4.04089        0.21577        0.10167
O          1.86140       -0.21747       -1.04340
O          2.22808       -0.86099        1.33312
H          1.34956       -1.33778        1.23291
C          3.41093       -2.27522       -0.54871
H          3.86785       -2.20125       -1.53610
H          4.13329       -2.62411        0.18889
H          2.52844       -2.91667       -0.57396
N         -3.88211       -0.01737       -0.06143
C         -5.19813        0.17047        0.58010
C         -3.69718        0.68963       -1.35273
H         -3.09347        0.24274        0.56901
H         -5.97875       -0.19558       -0.08798
H         -5.21728       -0.38982        1.51468
H         -5.35256        1.23138        0.78059
H         -4.41426        0.30392       -2.07820
H         -3.85918        1.75715       -1.19875
H         -2.67675        0.51156       -1.69629
H          1.47469        1.93975        1.06928
H          2.07777        3.58047        1.32079
H         -0.30093        3.58489        1.64641
H          0.06707        4.47859        0.15385
H         -0.90452        1.70613        0.24463
H         -1.70377        3.02696       -0.33347
H          3.00209        2.58641       -0.67543
H          1.51520        2.47419       -1.32539
C          1.48886        2.95669        0.63906
C          0.06062        3.48303        0.61033
N          2.08577        3.02303       -0.68880
N         -0.78775        2.61070       -0.20828
