20
1sa1msa1a_22.log	Energy: -891664.4410718
S          2.51091       -0.12354       -0.07363
O          3.93715       -0.02649        0.09982
O          1.80055        0.62457       -1.08255
O          2.14609       -1.66664       -0.37465
O          1.86114        0.11841        1.33885
H          2.77400       -2.22732        0.10305
H          0.88218        0.30695        1.26337
S         -1.69881        0.63823        0.15243
O         -0.70090        0.69349        1.22839
O         -3.08697        0.86126        0.53953
O         -1.57451       -0.73670       -0.59372
H         -2.43279       -1.31882       -0.43205
C         -1.21458        1.79147       -1.10270
H         -1.24296        2.78147       -0.64599
H         -0.20104        1.53650       -1.41635
H         -1.92645        1.72055       -1.92442
N         -3.76548       -2.03650       -0.11357
H         -4.26038       -2.42133       -0.91185
H         -4.32437       -1.28307        0.28276
H         -3.67638       -2.76645        0.58646
