40
1sa1msa2eda_93.log	Energy: -1095296.0889273
S          0.28196       -2.40158       -0.47875
O          1.09231       -3.57016       -0.20243
O          1.26747       -1.41991       -1.29909
O         -0.92253       -2.60649       -1.31587
O         -0.09656       -1.60344        0.74003
H         -2.05493       -1.42448       -0.93920
H          1.10851       -0.78739        1.41162
S         -0.08289        2.04185       -0.48895
O          1.01267        2.17813        0.50849
O         -1.40675        1.79420        0.14146
O          0.21522        1.05483       -1.55634
H          0.83004       -0.54623       -1.44861
C         -0.19598        3.62726       -1.29545
H         -0.42323        4.37843       -0.53901
H          0.76299        3.83374       -1.77086
H         -0.98843        3.57330       -2.04191
H         -4.07024       -1.76563        0.49611
H         -2.49595       -1.64647        1.32840
H         -4.42161       -0.21477        2.32447
H         -2.90100        0.62654        2.00207
H         -5.32989        1.37131        1.00899
H         -3.87959        1.83727        0.39944
H         -3.32247       -0.28241       -1.12577
H         -1.96322        0.13869       -0.29723
C         -3.25088       -1.09532        0.76556
C         -3.75459        0.12884        1.52873
N         -2.60910       -0.64990       -0.49655
N         -4.46054        1.03417        0.61793
H          3.91900       -0.72156        2.00044
H          3.04210       -1.63222        0.73855
H          4.69561       -0.09355       -0.23744
H          3.06505        0.35561       -0.72236
H          4.82862        2.07079        0.36409
H          3.20719        2.26401        0.53332
H          1.91260       -0.11212        2.73633
H          1.65164        0.78655        1.36193
C          3.21371       -0.64461        1.17139
C          3.75442        0.32599        0.12966
N          1.90407       -0.15756        1.72150
N          3.98662        1.64128        0.72432
