33
1sa1msa1ma1dma_151.log	Energy: -1001151.4116474
S         -0.39984       -1.40120       -0.44420
O         -0.01950       -0.29204       -1.37199
O         -1.64876       -2.06575       -0.83518
O          0.72481       -2.51479       -0.57936
O         -0.40908       -0.92281        0.95994
H          1.60276       -2.08290       -0.44632
H         -2.41855       -0.66108        1.55991
S          3.02523        0.42343        0.18767
O          4.29092        1.11428        0.09631
O          2.96291       -0.99891       -0.16915
O          1.97477        1.21631       -0.69336
H          1.21532        0.61534       -0.98396
C          2.37400        0.59488        1.83441
H          1.38972        0.12164        1.85632
H          3.06740        0.08695        2.50597
H          2.32268        1.65862        2.06722
N         -3.16889       -0.51982        0.87557
H         -2.89072        0.39246        0.33603
C         -4.52217       -0.49776        1.45412
H         -5.24930       -0.34075        0.65716
H         -4.73270       -1.44396        1.95336
H         -4.59549        0.31777        2.17416
H         -3.00436       -1.28168        0.19429
N         -2.18729        1.60867       -0.51448
C         -1.34465        2.37839        0.40526
C         -3.06669        2.45047       -1.32451
H         -1.56266        1.07779       -1.12650
H         -1.97775        2.90798        1.12521
H         -0.69061        1.68822        0.94366
H         -0.72140        3.11558       -0.11732
H         -3.77082        2.97873       -0.67352
H         -2.51148        3.19935       -1.90556
H         -3.63659        1.82585       -2.01671
