24
1sa1msa2a_75.log	Energy: -927166.4340464
S          2.14587       -0.51797        0.02403
O          1.31644        0.08489       -1.04706
O          2.54159        0.51178        1.02635
O          1.61572       -1.75757        0.56598
O          3.54936       -0.96037       -0.67283
H          4.04204       -0.15830       -0.88958
S         -2.24514       -0.31928       -0.00387
O         -1.65453        0.07333        1.27756
O         -2.53512        0.69893       -0.99238
O         -3.65286       -1.03499        0.36305
H         -3.69423       -1.15422        1.32281
C         -1.33278       -1.63864       -0.74547
H         -0.40297       -1.19807       -1.11861
H         -1.10652       -2.38031        0.01992
H         -1.94576       -2.04408       -1.55055
N          0.39361        2.08417        1.42176
H          0.44541        2.79668        2.14270
H         -0.36766        1.42158        1.61528
H          0.20075        2.49831        0.45319
H          1.29151        1.53017        1.36065
N         -0.09507        2.66356       -1.22701
H         -1.04675        2.36852       -1.43603
H          0.51860        1.89898       -1.51789
H          0.11600        3.48645       -1.78038
