41
1sa1msa1tma1eda_177.log	Energy: -1085204.0250270
S         -0.33706        0.50125       -0.77812
O         -0.90714       -0.80317       -1.17362
O         -0.29586        0.70212        0.68290
O          0.98017        0.76754       -1.40830
O         -1.26955        1.63797       -1.40154
H         -2.19945        1.45298       -1.12425
S         -4.01518       -0.34802        0.32575
O         -5.40078       -0.72863        0.47478
O         -3.69236        0.85308       -0.45519
O         -3.24287       -1.58457       -0.28858
H         -2.34840       -1.30581       -0.65383
C         -3.26908       -0.15964        1.93009
H         -3.77501        0.67329        2.42013
H         -3.42492       -1.08631        2.48230
H         -2.20735        0.05718        1.78872
H          3.87230       -3.68927       -0.14800
H          2.88462       -3.39633        1.28797
H          1.65175       -2.85786       -0.77971
H          1.83377       -1.45041        0.25566
H          3.40456       -1.98013       -2.15544
H          2.37853       -0.74224       -1.85643
H          5.05357       -2.46128        1.61455
H          4.90997       -1.54897        0.26226
C          3.40700       -2.89855        0.46452
C          2.38844       -2.14571       -0.38246
N          4.38941       -1.96863        1.02705
N          3.05985       -1.36362       -1.42490
N          2.68737        1.65711        0.46271
C          4.00596        1.69818       -0.21447
H          4.27329        0.67296       -0.47794
H          3.91378        2.29180       -1.12471
H          4.74219        2.14522        0.45716
C          2.09349        3.00477        0.64327
H          1.97667        3.47080       -0.33544
H          1.11237        2.88259        1.10268
H          2.74921        3.60568        1.27732
C          2.74200        0.90544        1.74469
H          1.71671        0.74884        2.08045
H          3.24484       -0.05328        1.58116
H          3.30194        1.50164        2.46993
H          2.03485        1.16137       -0.19800
