39
1sa1msa1dma1tma_94.log	Energy: -1050468.5468668
S          0.28611       -1.54324       -0.65052
O         -1.05283       -1.96790       -1.10307
O          0.89162       -0.51650       -1.53207
O          0.40273       -1.22558        0.77225
O          1.21324       -2.86748       -0.82429
H          0.99650       -3.27698       -1.67295
S         -3.17654        0.31429        0.45380
O         -4.47365        0.92461        0.65241
O         -2.03328        1.16395        0.11379
O         -3.35178       -0.78773       -0.67027
H         -2.46855       -1.19832       -0.89887
C         -2.72948       -0.63662        1.89076
H         -2.66224        0.06308        2.72502
H         -3.51478       -1.37118        2.06850
H         -1.76223       -1.10961        1.70584
N          3.26407       -0.10162        1.05977
C          3.91894       -0.05846        2.35827
C          4.04594       -0.82069        0.06209
H          2.35926       -0.56058        1.15262
H          4.85007        0.51490        2.28357
H          3.27185        0.44410        3.08358
H          4.17014       -1.05606        2.75587
H          4.98194       -0.28213       -0.13057
H          4.30414       -1.84735        0.36845
H          3.47872       -0.87763       -0.87075
N          1.14057        2.02847       -0.67808
C          2.54398        2.36247       -1.02498
H          3.18894        1.77938       -0.36338
H          2.72058        2.09201       -2.06669
H          2.69865        3.43477       -0.88385
C          0.16189        2.70636       -1.56629
H          0.37849        2.42673       -2.59778
H         -0.84006        2.37539       -1.29245
H          0.26064        3.78675       -1.43935
C          0.86017        2.28457        0.75936
H         -0.14637        1.92935        0.97748
H          1.60111        1.73685        1.34120
H          0.94099        3.35892        0.94208
H          1.02960        1.00015       -0.85699
