27
1sa1msa1a1ma_146.log	Energy: -951823.3393710
S         -2.22733        0.15346       -0.09137
O         -2.64012       -0.66633        1.06401
O         -1.81906        1.52415        0.18363
O         -1.25460       -0.59936       -0.94160
O         -3.58809        0.23652       -0.96700
H         -3.50065        0.97231       -1.58826
S          2.13435       -0.80113       -0.19820
O          2.92185       -1.78188       -0.91977
O          1.29077       -1.30483        0.90633
O          1.22355        0.00643       -1.20144
H          0.23505       -0.18435       -1.07885
C          3.16483        0.48147        0.44590
H          3.83354        0.01694        1.17162
H          3.73167        0.89433       -0.38935
H          2.50636        1.23571        0.90237
N         -0.97865       -2.75887        0.89748
H         -1.14913       -3.13094       -0.03476
H         -0.04777       -2.27212        0.89142
H         -1.71010       -2.01680        1.08413
H         -1.00050       -3.50154        1.59050
N          0.89625        2.68279        1.09578
H         -0.00488        2.21135        1.05650
C          1.11397        3.40030       -0.16038
H          0.33640        4.13807       -0.40232
H          2.07847        3.91761       -0.12606
H          1.15480        2.67331       -0.97618
H          0.85402        3.33322        1.87312
