38
1sa1msa1dma1eda_184.log	Energy: -1060551.0634364
S         -0.30243        2.12439        0.06521
O          0.10118        0.84413        0.79006
O         -1.63552        2.54668        0.47136
O          0.78522        3.09114        0.08940
O         -0.37507        1.66590       -1.48390
H         -1.01019        0.91945       -1.54088
S         -2.67867       -1.00548       -0.00018
O         -3.25965       -2.32974        0.02675
O         -1.90763       -0.61357       -1.19453
O         -1.74463       -0.86113        1.26249
H         -1.03415       -0.14264        1.11805
C         -3.93303        0.22293        0.26340
H         -4.60585        0.18594       -0.59419
H         -4.46097       -0.03433        1.18165
H         -3.43997        1.19467        0.34475
N          2.76231        0.57672        0.16637
C          2.90013        0.93719       -1.26445
C          3.45586        1.49975        1.08946
H          1.74492        0.58404        0.40942
H          3.95779        0.90943       -1.53582
H          2.33350        0.20773       -1.84444
H          2.48846        1.93506       -1.41653
H          4.52025        1.52360        0.84816
H          3.01077        2.48965        0.98125
H          3.31459        1.14530        2.11097
H          3.10172       -0.40986        0.28649
H          2.51448       -4.05080        0.01480
H          2.61688       -3.25474        1.58927
H          0.32316       -3.15291        0.61429
H          0.99610       -1.56722        0.94838
H          0.80552       -2.78925       -1.69777
H          0.13037       -1.41218       -1.18079
H          4.44746       -2.54802        0.27686
H          3.47365       -2.12505       -0.96995
C          2.46999       -3.07472        0.52025
C          1.09957       -2.44189        0.29969
N          3.53343       -2.17275        0.04482
N          0.96181       -1.99214       -1.08655
