40
1sa1msa2eda_133.log	Energy: -1095292.0707520
S          1.58794       -1.18334       -1.17352
O          0.99340        0.24011       -1.61529
O          1.03196       -2.20924       -2.04718
O          3.04833       -0.94744       -1.25320
O          1.17176       -1.37629        0.25476
H          3.39349       -0.18343        0.14748
H         -0.36505       -2.19108        0.15156
S         -2.33872        1.18242       -0.44260
O         -1.36817        2.13510        0.12423
O         -3.24723        0.54912        0.52884
O         -1.64810        0.12811       -1.28694
H         -0.00086        0.23984       -1.54239
C         -3.34230        2.09775       -1.59834
H         -3.86143        2.87847       -1.04184
H         -2.68477        2.53248       -2.35131
H         -4.05388        1.40972       -2.05474
H          4.01539        2.19834        1.83716
H          4.42064        1.93523        0.12230
H          2.42799        3.50987        0.47620
H          2.04560        2.08918       -0.51223
H          1.21678        2.49937        2.24730
H          0.37207        1.91222        0.96913
H          4.07505       -0.11604        1.69660
H          2.44841        0.27149        1.46172
C          3.65633        1.79145        0.88774
C          2.31203        2.41908        0.49559
N          3.41357        0.33688        1.07225
N          1.29202        1.92956        1.41200
H         -0.43620       -2.56043        2.56762
H         -1.94435       -2.11531        3.35235
H         -2.36615       -3.51362        1.38678
H         -3.08490       -1.89406        1.16745
H         -1.55357       -3.01060       -0.68839
H         -1.62977       -1.35989       -0.48479
H         -0.18271       -0.39261        1.74632
H         -1.69724        0.06513        2.20852
C         -1.33276       -1.93845        2.45986
C         -2.14955       -2.44886        1.26421
N         -0.92023       -0.55153        2.42734
N         -1.39398       -2.26794       -0.01174
