40
1sa1msa2eda_251.log	Energy: -1095275.7916755
S         -0.17363       -0.14340       -0.78441
O          1.11038        0.33209       -1.30570
O         -1.31743        0.03380       -1.69866
O         -0.09541       -1.51519       -0.22080
O         -0.42817        0.83136        0.47962
H          1.18558       -1.53352        0.86106
H         -1.36240        0.72473        0.78412
S         -4.15648        0.29261        0.23563
O         -4.82004        1.54612       -0.05735
O         -2.99660        0.32408        1.14212
O         -3.75570       -0.47319       -1.08195
H         -2.78994       -0.29420       -1.34399
C         -5.33753       -0.85733        0.89597
H         -5.72296       -0.42279        1.81869
H         -6.13670       -0.97467        0.16417
H         -4.83351       -1.80404        1.08561
H          4.05201       -2.00816        1.49335
H          2.86287       -3.33073        1.62760
H          3.94664       -3.38999       -0.54119
H          2.22306       -3.04569       -0.73140
H          3.97833       -1.62910       -1.98301
H          2.75321       -0.82148       -1.26659
H          1.74949       -1.50336        2.43176
H          2.34223       -0.36684        1.35734
C          3.10039       -2.39272        1.11836
C          3.17939       -2.62498       -0.38534
N          2.04115       -1.40285        1.46167
N          3.56723       -1.40907       -1.08367
H          3.66384        3.09213        1.47646
H          4.45631        1.60517        2.04936
H          5.30666        2.30428       -0.13625
H          4.50891        0.72305       -0.25291
H          3.96232        2.61351       -1.94688
H          2.69160        1.77640       -1.35028
H          2.01751        1.62969        2.30693
H          1.83662        1.63582        0.70626
C          3.76619        2.01353        1.30167
C          4.33673        1.79769       -0.09405
N          2.46867        1.32852        1.44653
N          3.45766        2.39518       -1.09706
