38
1sa1msa1dma1eda_270.log	Energy: -1060544.7223841
S         -0.16149        2.19347        0.09152
O         -1.36781        2.37509        0.89614
O          1.02472        1.86249        0.93591
O         -0.29426        1.30311       -1.06587
O          0.17605        3.63421       -0.58768
H          0.14463        4.30302        0.10969
S          2.93313       -0.82741       -0.00530
O          1.98724       -1.09998       -1.09333
O          2.65773       -1.50412        1.25801
O          3.11567        0.71184        0.19176
H          2.23403        1.19586        0.45887
C          4.56962       -1.23960       -0.55564
H          4.58711       -2.31725       -0.72021
H          4.76770       -0.70145       -1.48197
H          5.27476       -0.95636        0.22512
N         -0.68138       -1.43982       -0.12846
C         -0.72650       -1.17162        1.33093
C         -0.50242       -2.87027       -0.44219
H         -1.55768       -1.07019       -0.58370
H          0.21652       -1.49473        1.77431
H         -0.85815       -0.10204        1.49092
H         -1.58054       -1.71179        1.74116
H          0.44679       -3.20557       -0.02346
H         -1.32934       -3.42982       -0.00242
H         -0.48602       -2.99764       -1.52490
H          0.09924       -0.91568       -0.55324
H         -5.43908       -1.04621       -0.56439
H         -5.19003       -0.71176        1.15038
H         -4.38875        1.12891       -0.30606
H         -3.11792        0.48055        0.72198
H         -3.44082       -0.20406       -2.11470
H         -2.24028        0.68716       -1.43400
H         -4.46822       -2.88807        0.82419
H         -3.58459       -2.51866       -0.49326
C         -4.66707       -0.93794        0.21627
C         -3.76603        0.24241       -0.12538
N         -3.88938       -2.16613        0.40869
N         -2.89725       -0.07691       -1.26555
