38
1sa1msa1dma1eda_110.log	Energy: -1060557.4132674
S          1.36852        1.61073       -0.76898
O          2.28849        2.69088       -1.04876
O         -0.06248        2.11508       -1.28811
O          1.63190        0.34247       -1.52392
O          1.20086        1.29578        0.68269
H          2.31441       -0.81687       -0.78581
H         -0.36176        1.35773        1.31833
S         -1.97184       -1.12677       -0.79602
O         -3.28128       -1.76390       -0.88619
O         -1.17243       -1.49534        0.40363
O         -2.04232        0.38615       -0.89596
H         -0.73327        1.37893       -1.28247
C         -1.01497       -1.61335       -2.22272
H         -0.88235       -2.69558       -2.18119
H         -1.57806       -1.33624       -3.11451
H         -0.05770       -1.08888       -2.19098
N         -1.38645        1.46625        1.50770
C         -1.70111        2.90843        1.56301
C         -1.78026        0.68894        2.69908
H         -1.82151        1.04317        0.65209
H         -1.19672        3.35557        2.42110
H         -1.34189        3.36879        0.64226
H         -2.78033        3.04022        1.65409
H         -1.21797        1.04313        3.56501
H         -2.84966        0.81822        2.87411
H         -1.56846       -0.36142        2.49599
H          3.75278       -2.05749        1.53174
H          3.21756       -0.35767        1.33247
H          1.69461       -1.76964        2.85931
H          0.89755       -0.96475        1.49259
H          1.24208       -3.80183        1.82083
H          0.13877       -2.91688        0.94546
H          3.71944       -1.76774       -0.77502
H          2.24392       -2.48926       -0.37130
C          2.96102       -1.40319        1.15688
C          1.59974       -1.75429        1.76802
N          2.82742       -1.63285       -0.30657
N          1.12093       -3.01241        1.19935
