30
1sa1msa1a1dma_79.log	Energy: -976496.1563590
S          0.62827        1.56162        0.06373
O          0.65793        0.37473       -0.89002
O          0.09346        1.12287        1.36487
O          1.90386        2.25424        0.08861
O         -0.42530        2.56882       -0.58003
H         -1.26422        2.07478       -0.72094
S         -2.63360       -0.57350       -0.27127
O         -3.66029       -1.48013       -0.73420
O         -2.53837        0.76449       -0.86210
O         -1.22741       -1.29707       -0.44370
H         -0.49888       -0.61578       -0.65637
C         -2.76639       -0.38512        1.49228
H         -3.72168        0.10456        1.68560
H         -2.74912       -1.37726        1.94371
H         -1.92993        0.23208        1.82581
N          1.06619       -1.67144        1.75716
H          0.28988       -2.16654        1.32331
H          0.73388       -0.71383        1.90929
H          1.24564       -2.09868        2.65969
N          2.87026       -1.06161       -0.27870
C          3.19409       -2.21486       -1.13901
C          4.03372       -0.25021        0.14045
H          2.16330       -0.44844       -0.74313
H          3.86879       -2.88687       -0.60587
H          2.27032       -2.73978       -1.38509
H          3.67063       -1.86499       -2.05595
H          4.69128       -0.85946        0.76308
H          4.57036        0.09428       -0.74477
H          3.66754        0.61756        0.69003
H          2.32280       -1.39265        0.57314
