27
1sa1msa1a1ma_160.log	Energy: -951823.2623379
S         -1.05048       -1.54678       -0.09485
O         -0.41990       -2.81336        0.23433
O         -2.50024       -1.51466       -0.28390
O         -0.86736       -0.54842        1.20183
O         -0.31666       -0.81603       -1.18859
H          0.07683       -0.51621        1.43939
H         -0.76870        0.72408       -1.25727
S          2.49723        0.55118        0.14040
O          1.86884        1.69370       -0.49921
O          1.92878        0.01575        1.37391
O          4.01525        0.98998        0.49627
H          4.18601        0.76656        1.42308
C          2.75355       -0.73924       -1.04214
H          1.75026       -1.06024       -1.34492
H          3.31931       -0.32272       -1.87551
H          3.29451       -1.54662       -0.54900
N         -1.03189        1.73725       -1.06811
H         -1.22737        2.22807       -1.93529
H         -0.21878        2.15430       -0.61263
H         -1.90380        1.70533       -0.42224
N         -3.22459        1.27808        0.50951
H         -3.23694        0.27498        0.29943
C         -4.53539        1.88340        0.26049
H         -5.34047        1.43893        0.85732
H         -4.49680        2.95512        0.47479
H         -4.79072        1.75934       -0.79514
H         -2.97463        1.34090        1.49222
