27
1sa1msa1a1ma_61.log	Energy: -951832.5079934
S          2.02648       -0.86942       -0.10505
O          2.56480        0.35053       -0.68884
O          1.69569       -0.77939        1.33532
O          0.91519       -1.49212       -0.87596
O          3.25046       -1.92179       -0.22244
H          2.93797       -2.78609        0.07775
S         -2.29099       -0.35085       -0.06971
O         -1.99180        0.47224       -1.23110
O         -2.18480        0.30338        1.24415
O         -1.45584       -1.67376       -0.07713
H         -0.47518       -1.55594       -0.39265
C         -3.92660       -1.02699       -0.19787
H         -4.62349       -0.19064       -0.13805
H         -4.00970       -1.53457       -1.15827
H         -4.07918       -1.71948        0.62947
N          0.27249        1.47796        1.97482
H         -0.69901        1.17800        1.78473
H          0.61169        2.16961        1.20839
H          0.34411        1.88327        2.90297
H          0.86956        0.62544        1.89657
N          1.21013        2.94022       -0.14002
H          1.75350        3.78619        0.00139
C          0.15946        3.16213       -1.14655
H          0.55690        3.50666       -2.10782
H         -0.38213        2.22822       -1.31025
H         -0.55231        3.90487       -0.77583
H          1.85435        2.21810       -0.47141
