40
1sa1msa2eda_23.log	Energy: -1095297.6790238
S          2.51743       -1.28693       -0.19646
O          1.85383       -2.20704       -1.14209
O          3.41109       -0.31256       -0.82610
O          1.57238       -0.71223        0.78743
O          3.45576       -2.21872        0.75585
H          4.15260       -2.59701        0.20278
S         -2.60895        1.26732       -0.13144
O         -2.03859        2.05698        0.99434
O         -3.43421        0.11910        0.28660
O         -1.53370        0.87950       -1.10202
C         -3.68704        2.37654       -1.02022
H         -4.47198        2.69894       -0.33571
H         -3.10028        3.22911       -1.36230
H         -4.11157        1.83589       -1.86613
H          1.27092        3.83879        1.05079
H          1.67877        2.61115        2.27266
H          3.69079        3.40371        0.89303
H          3.41954        1.65950        0.84724
H          3.30414        3.42459       -1.35853
H          3.19872        1.77218       -1.31867
H         -0.31129        2.02748        0.85194
H          0.74189        2.04257       -0.45110
C          1.64422        2.82276        1.20207
C          3.00913        2.62479        0.53520
N          0.68358        1.89716        0.56437
N          2.85016        2.63736       -0.91631
H          0.96323        0.90687        0.72135
H         -2.82285       -1.83224       -1.10836
H         -1.82086       -3.18910       -1.68662
H         -3.42615       -3.74707        0.23477
H         -1.73327       -4.14869        0.56792
H         -2.99406       -1.64708        1.48536
H         -2.46864       -2.90759        2.43575
H         -0.94241       -0.74502       -0.88256
H         -0.76692       -1.64580        0.49510
C         -2.02858       -2.53134       -0.84164
C         -2.42981       -3.31769        0.40965
N         -0.82329       -1.71949       -0.53472
N         -2.33985       -2.42492        1.55647
H          0.07966       -2.09856       -0.87341
