36
1sa1msa2dma_188.log	Energy: -1025801.9206738
S         -1.69339       -0.04322       -0.93615
O         -0.49284        0.17562       -1.75636
O         -2.96557        0.28175       -1.61006
O         -1.81662       -1.62096       -0.66874
O         -1.59970        0.59418        0.40718
H         -0.95797       -1.93791       -0.29368
H         -3.29772        0.93311        0.96102
S          1.82131       -1.31886        0.36347
O          3.10697       -1.94107        0.59215
O          0.62366       -2.17052        0.35905
O          1.91540       -0.56894       -1.03486
H          1.00678       -0.28481       -1.34902
C          1.56707        0.00022        1.52292
H          1.56986       -0.45220        2.51571
H          2.39787        0.70316        1.38977
H          0.59878        0.45788        1.30541
N         -4.28475        0.81981        0.64772
C         -5.10585        2.00843        0.94480
C         -4.80677       -0.46364        1.17095
H         -4.10613        0.71061       -0.37938
H         -5.19500        2.13000        2.02521
H         -4.62361        2.88474        0.51195
H         -6.09598        1.87962        0.50547
H         -4.88707       -0.40542        2.25720
H         -5.78630       -0.65602        0.73184
H         -4.10964       -1.25243        0.88503
N          4.13758        1.45452        0.07203
C          5.35267        0.75222        0.45810
C          4.37435        2.84194       -0.28878
H          3.69888        0.96698       -0.70342
H          5.74750        1.18994        1.38211
H          5.12045       -0.29851        0.64706
H          6.14827        0.80617       -0.30532
H          4.71631        3.39472        0.59346
H          5.13634        2.96816       -1.07822
H          3.44252        3.29968       -0.63240
