41
1sa1msa1tma1eda_213.log	Energy: -1085202.1533671
S          0.52023        2.15348        0.25363
O         -0.82444        1.65873        0.55765
O          1.53327        1.87389        1.27637
O          0.98423        1.81728       -1.12168
O          0.30442        3.76546        0.21982
H          1.14856        4.17495       -0.01341
S          2.06468       -1.47403       -0.49995
O          2.51284       -2.75503       -1.00425
O          0.76786       -1.41037        0.18475
O          2.07258       -0.46060       -1.70339
H          1.60859        0.40628       -1.46869
C          3.28400       -0.80661        0.61055
H          3.36307       -1.49645        1.45222
H          4.23157       -0.75068        0.07470
H          2.94314        0.17947        0.93774
H         -3.45423       -1.24404       -2.82466
H         -4.24034       -0.70277       -1.33336
H         -3.30981        1.21569       -2.56598
H         -2.47329        1.01847       -1.01890
H         -1.35925        0.44149       -3.63598
H         -0.65003        1.11285       -2.30387
H         -2.58776       -2.63031       -1.17426
H         -1.43506       -1.49585       -1.36657
C         -3.26704       -0.80976       -1.82961
C         -2.62407        0.56528       -2.00323
N         -2.38289       -1.64865       -1.01410
N         -1.31394        0.41636       -2.62482
N         -1.37671       -0.84459        1.88755
C         -0.41604       -0.30313        2.88492
H          0.55027       -0.77552        2.71509
H         -0.31962        0.76947        2.73284
H         -0.79158       -0.53191        3.88459
C         -2.70738       -0.19129        1.98192
H         -2.56722        0.88171        1.86293
H         -3.32040       -0.58237        1.16994
H         -3.14453       -0.42638        2.95474
C         -1.48725       -2.32122        1.99705
H         -2.18441       -2.65914        1.23318
H         -0.50448       -2.75381        1.81607
H         -1.84695       -2.56788        2.99832
H         -0.99957       -0.63101        0.95031
