30
1sa1msa2ma_16.log	Energy: -976507.8234857
S         -2.06443       -0.58231        0.13081
O         -1.25741        0.21033        1.28830
O         -2.48885       -1.87109        0.65291
O         -3.11994        0.38898       -0.22193
O         -1.07711       -0.69491       -0.99437
H         -2.06202        1.64089       -0.80056
H         -0.06028       -1.87988       -1.02029
S          2.08389        0.48846        0.02649
O          1.32639        1.64360       -0.51839
O          2.54768       -0.47029       -1.00923
O          1.36394       -0.20233        1.13531
H         -0.29117       -0.01981        1.27344
C          3.55932        1.17907        0.75025
H          4.11897        1.68058       -0.03943
H          3.26026        1.88673        1.52344
H          4.14104        0.36252        1.17785
N          0.76055       -2.55901       -0.96337
H          0.72528       -3.19434       -1.75625
C          0.72823       -3.27362        0.33529
H          1.51561       -4.02721        0.36287
H          0.89430       -2.53113        1.11536
H         -0.25277       -3.72951        0.46695
H          1.59315       -1.93484       -1.04291
N         -1.28736        2.34314       -0.89062
H         -0.36941        1.84541       -0.82005
C         -1.38998        3.33317        0.20634
H         -0.54935        4.02392        0.15032
H         -2.33595        3.86809        0.12490
H         -1.35918        2.77740        1.14271
H         -1.33512        2.77780       -1.80916
