38
1sa1msa1dma1eda_344.log	Energy: -1060536.4661981
S          0.89197        0.02282        1.07860
O         -0.45375        0.31287        1.61711
O          1.94102       -0.25246        2.05063
O          0.76731       -1.33773        0.23211
O          1.29470        1.07679        0.09235
H         -0.07588       -1.33328       -0.28994
H          2.79827        1.11017       -0.14599
S         -2.88523       -1.36468       -0.27307
O         -3.58179       -2.62504       -0.40419
O         -1.60691       -1.18522       -0.98606
O         -2.63367       -1.10859        1.26932
H         -1.81112       -0.55835        1.42656
C         -3.95132       -0.03058       -0.74603
H         -4.15382       -0.15282       -1.81115
H         -4.87087       -0.12467       -0.16784
H         -3.42728        0.91424       -0.54101
N         -1.83902        2.37805       -0.27924
C         -1.99144        3.74338        0.19161
C         -1.26289        2.29917       -1.61184
H         -1.24885        1.86126        0.36763
H         -2.71642        4.27317       -0.43728
H         -2.37362        3.73981        1.21594
H         -1.04850        4.31821        0.17386
H         -1.96255        2.72862       -2.33971
H         -0.30205        2.83322       -1.70303
H         -1.09631        1.25040       -1.87053
H          5.59866        0.07973        0.27426
H          4.15388       -0.17393        1.31252
H          4.66062       -2.17437       -0.16320
H          3.05742       -1.48972       -0.41804
H          5.32766       -1.28818       -2.23705
H          3.73777       -1.48751       -2.56751
H          4.25676        1.98612       -0.00866
H          4.00814        1.00449       -1.35130
C          4.51677       -0.08092        0.28846
C          4.12617       -1.29862       -0.54769
N          3.86643        1.10605       -0.33572
N          4.39280       -1.01071       -1.95992
