32
1sa1msa1a1eda_263.log	Energy: -1011228.2595098
S         -0.46861       -1.30905        0.35131
O         -0.41781       -0.28530       -0.77376
O          0.13916       -0.72925        1.55933
O         -1.81290       -1.84812        0.50242
O          0.43979       -2.51681       -0.14209
H          1.32746       -2.15671       -0.37420
S          3.02020        0.28562       -0.45665
O          4.14341        0.93286       -1.09522
O          2.73321       -1.11909       -0.76448
O          1.71890        1.14286       -0.77110
H          0.89186        0.55148       -0.80935
C          3.17649        0.43652        1.30846
H          4.06447       -0.12766        1.59684
H          3.30144        1.49246        1.54912
H          2.27695        0.01508        1.76128
N         -0.17131        2.40330        1.45723
H          0.55333        2.58529        0.76621
H          0.00709        1.45868        1.80500
H         -0.03997        3.05420        2.22417
H         -4.20620        2.34557       -0.22110
H         -3.12039        2.18525       -1.62879
H         -5.14334        0.58755       -1.65676
H         -3.57537       -0.21215       -1.79052
H         -5.46084       -0.67300        0.19575
H         -3.89375       -1.20128        0.20549
H         -1.85351        2.09473        0.60234
H         -2.81414        0.74355        0.90297
C         -3.52524        1.67649       -0.75181
C         -4.22266        0.35786       -1.11354
N         -2.41377        1.33319        0.16021
N         -4.49560       -0.38717        0.11180
H         -1.69745        0.74425       -0.32709
