36
1sa1msa1ma1tma_85.log	Energy: -1025810.9520411
S          0.35008       -1.44026       -0.30176
O         -0.81599       -2.22762        0.13648
O          1.55806       -2.19568       -0.60867
O         -0.05895       -0.74820       -1.70123
O          0.61972       -0.29659        0.62909
H         -0.94243       -0.32238       -1.58106
H          2.20455        0.10585        0.45010
S         -3.17499        0.30297        0.18035
O         -4.53995        0.77454        0.16681
O         -2.34302        0.52187       -1.01242
O         -3.20245       -1.24023        0.51567
H         -2.30001       -1.65781        0.36222
C         -2.30728        1.00543        1.56557
H         -2.27199        2.08409        1.40638
H         -2.86565        0.76617        2.47054
H         -1.30005        0.58154        1.58316
N          1.27080        2.16994       -1.32787
H          1.31465        2.70201       -2.19149
C          0.37869        2.83971       -0.37735
H         -0.64814        2.96917       -0.74375
H          0.33363        2.24296        0.53749
H          0.78514        3.82452       -0.12573
H          0.87576        1.26382       -1.57294
N          3.25320        0.22068        0.51644
C          3.50280        1.57252        1.06928
H          3.08299        2.29497        0.36744
H          3.00479        1.65437        2.03632
H          4.57847        1.72019        1.19026
C          3.71146       -0.86109        1.42318
H          3.21562       -0.74296        2.38701
H          3.42401       -1.81542        0.98137
H          4.79495       -0.79325        1.54392
C          3.82420        0.07091       -0.84732
H          3.51346       -0.89756       -1.23934
H          3.41957        0.87349       -1.46388
H          4.91281        0.13888       -0.78155
