13
1tma.log	Energy: -109459.3182112
N          0.00000        0.00000        0.37482
C          0.00000        1.38353       -0.06104
H         -0.88516        1.89536        0.32815
H          0.88516        1.89536        0.32815
H          0.00000        1.48431       -1.16462
C          1.19817       -0.69176       -0.06104
H          2.08401       -0.18111        0.32815
H          1.19886       -1.71425        0.32815
H          1.28545       -0.74216       -1.16462
C         -1.19817       -0.69176       -0.06104
H         -1.19886       -1.71425        0.32815
H         -2.08401       -0.18111        0.32815
H         -1.28545       -0.74216       -1.16462
