10
1dma.log	Energy:  -84798.1911762
H         -0.77033        1.20666       -0.00000
H          0.96425       -0.78482        1.27113
H         -0.02537        0.43044        2.08666
H         -0.80427       -0.94874        1.26440
H          0.96425       -0.78482       -1.27113
H         -0.80427       -0.94874       -1.26440
H         -0.02537        0.43044       -2.08666
C          0.02637       -0.22191        1.21084
C          0.02637       -0.22191       -1.21084
N          0.02637        0.58036       -0.00000
