28
1msa1ma1eda_104.log	Energy: -596515.1511864
S         -1.69195       -0.11747       -0.09462
O         -1.65653        1.21308       -0.71235
O         -1.29172       -0.14013        1.34416
O         -0.90971       -1.15259       -0.85928
H          0.36676       -1.54511        0.06003
C         -3.38885       -0.66546       -0.15374
H         -3.99115        0.05313        0.40254
H         -3.69614       -0.69646       -1.19925
H         -3.45422       -1.65506        0.29845
H          3.17601       -2.14538       -0.47927
H          3.93503       -0.58558       -0.21573
H          2.76288       -1.11982        1.83700
H          1.88783        0.19880        1.01466
H          1.08023       -2.62851        1.16278
H          0.21946       -1.24497        1.61699
H          1.51679       -1.08941       -1.82119
H          2.02368        0.40209       -1.37244
C          2.96397       -1.07598       -0.34779
C          2.18147       -0.85081        0.95035
N          2.33442       -0.55674       -1.54307
N          0.92061       -1.64304        0.96629
N          1.16533        2.22340       -0.49998
H          1.59237        2.92879       -1.09166
C          0.99220        2.73897        0.85958
H          0.47981        3.70958        0.91086
H          0.39041        2.02676        1.43244
H          1.96747        2.84360        1.34836
H          0.24240        2.01852       -0.88398
