29
1msa1ma1tma_14.log	Energy: -586441.2979516
S         -1.65640        0.09653        0.07795
O         -1.42521        1.16322        1.06070
O         -1.78855       -1.26099        0.64750
O         -0.59881        0.09494       -1.01524
H          0.52590       -0.76088       -0.51568
C         -3.17213        0.47578       -0.78177
H         -3.06227        1.45625       -1.24538
H         -3.34763       -0.29384       -1.53321
H         -3.97467        0.48718       -0.04392
N          1.04299        2.65469       -0.23897
H          0.45675        2.59465        0.58701
C          2.45846        2.70905        0.06670
H          2.86208        1.86616        0.66229
H          3.03361        2.75729       -0.86447
H          2.68154        3.62309        0.62546
H          0.77943        1.86657       -0.82141
N          1.32785       -1.35773       -0.08394
C          2.56016       -1.04566       -0.83671
H          2.39843       -1.27391       -1.89089
H          2.77935        0.01690       -0.72507
H          3.39189       -1.63911       -0.44843
C          1.42292       -0.94273        1.33782
H          1.57600        0.13673        1.37420
H          0.47785       -1.17959        1.82729
H          2.25548       -1.46631        1.81467
C          0.91912       -2.77522       -0.21531
H         -0.06009       -2.88236        0.25413
H          0.83983       -3.01908       -1.27550
H          1.66241       -3.41759        0.26415
