25
1msa1a1eda_19.log	Energy: -571862.4452757
S          1.41123       -0.25532       -0.04069
O          1.26167        0.41560       -1.34472
O          0.81722       -1.60927        0.02408
O          0.90894        0.60211        1.09555
H         -0.63379        0.34220        1.29145
C          3.16016       -0.43985        0.26020
H          3.56833       -1.06402       -0.53518
H          3.61771        0.54937        0.24459
H          3.29478       -0.91573        1.23146
H         -3.55996        0.32341        0.57661
H         -2.30110        1.50857        0.04154
H         -2.92857       -0.34064       -1.66968
H         -1.21060       -0.13887       -1.32943
H         -2.70710       -2.46677       -0.90586
H         -1.12081       -2.18333       -0.50526
H         -1.99360        0.42606        2.31038
H         -1.68766       -0.97675        1.43558
C         -2.51826        0.46238        0.27405
C         -2.16343       -0.46114       -0.89723
N         -1.66153        0.05632        1.42390
N         -2.07679       -1.84267       -0.42184
N         -0.46060        2.85669       -0.43580
H          0.03158        2.23200       -1.07495
H          0.12442        2.87425        0.39500
H         -0.45426        3.78717       -0.84041
