25
1msa1a1eda_23.log	Energy: -571862.1187461
S          1.61130       -0.13242        0.10996
O          0.98309       -0.57059        1.37056
O          1.97512        1.31904        0.10139
O          0.78789       -0.47414       -1.08944
H         -0.30185        1.29451       -1.64941
C          3.14873       -1.02080       -0.04972
H          3.77468       -0.76497        0.80541
H          2.92254       -2.08728       -0.05549
H          3.62530       -0.71953       -0.98241
H         -3.27293       -0.60650        1.52490
H         -3.75879        0.89181        0.69915
H         -3.91299       -1.00579       -0.79967
H         -2.69392        0.12952       -1.38078
H         -2.15193       -2.37905       -1.28441
H         -1.00901       -1.40856       -0.63189
H         -1.79266        1.30357        1.93415
H         -0.97490        0.07388        1.26281
C         -2.98561        0.11660        0.75176
C         -2.91410       -0.60993       -0.58709
N         -1.70609        0.77045        1.07331
N         -1.97614       -1.71876       -0.53710
N         -0.39187        2.03877       -0.95106
H          0.57554        2.10669       -0.54754
H         -1.02421        1.63895       -0.15061
H         -0.72993        2.90849       -1.34948
