31
1msa1dma1eda_53.log	Energy: -621180.9616183
S          1.91786       -0.25212       -0.03942
O          2.18447        1.18900       -0.24764
O          1.98661       -1.09097       -1.24073
O          0.60732       -0.42830        0.70183
H         -0.29152        0.80549        0.20625
C          3.15945       -0.85290        1.09703
H          3.10041       -0.27378        2.01861
H          2.96658       -1.90858        1.28940
H          4.13274       -0.72378        0.62256
H         -1.58445       -0.81965       -1.12391
H         -2.93002       -1.96485       -1.18718
H         -3.37457       -1.70238        1.18588
H         -1.87624       -0.79155        1.41640
H         -4.04514        0.18903       -0.31510
H         -3.85657        0.64048        1.23382
H         -1.00059       -3.24893       -1.01328
H         -0.39156       -2.33522        0.19057
C         -2.11200       -1.60130       -0.55165
C         -2.69561       -0.98179        0.71478
N         -1.25661       -2.71796       -0.18853
N         -3.35047        0.30968        0.41762
N         -0.87330        1.65230       -0.07561
C         -0.61694        1.96007       -1.49882
C         -0.50733        2.75133        0.83863
H         -1.86930        1.35450        0.05772
H          0.45176        2.13938       -1.62347
H         -0.90572        1.09740       -2.10066
H         -1.20243        2.83354       -1.79408
H          0.56562        2.92462        0.74166
H         -1.06999        3.65167        0.58243
H         -0.73474        2.44793        1.86130
