34
1msa1eda1tma_21.log	Energy: -645838.3304671
S         -1.94637       -0.92151       -0.13540
O         -0.99925       -1.75383       -0.89660
O         -2.65466        0.10255       -0.93239
O         -1.29010       -0.28608        1.07178
C         -3.18210       -2.01718        0.54126
H         -3.69380       -2.49390       -0.29524
H         -2.67848       -2.76204        1.15754
H         -3.87950       -1.42726        1.13585
H          3.45506       -1.65646       -1.31927
H          4.78688       -1.83919       -0.18816
H          2.73758       -2.59537        0.88236
H          3.28101       -1.11244        1.68120
H          1.08540       -1.29770       -0.26352
H          0.98155       -0.85095        1.26317
H          3.39664        0.68533       -0.66795
H          4.76683        0.48214        0.19496
C          3.87355       -1.26677       -0.38272
C          2.86719       -1.50997        0.74495
N          4.24311        0.12840       -0.60000
N          1.61159       -0.81477        0.46597
N         -0.26738        1.96976        0.13226
C          0.86405        2.41854        0.97331
H          0.51235        2.54785        1.99797
H          1.62772        1.63872        0.93797
H          1.25008        3.36628        0.58897
C          0.15990        1.70818       -1.26686
H          0.94859        0.95624       -1.23737
H         -0.69774        1.31920       -1.81673
H          0.52125        2.64043       -1.70854
C         -1.42925        2.88835        0.18341
H         -2.25068        2.41312       -0.35552
H         -1.71395        3.03503        1.22599
H         -1.15740        3.84433       -0.27075
H         -0.61669        1.03915        0.53336
