26
1msa1ma1dma_56.log	Energy: -561775.8971008
S          1.52636       -0.65363       -0.09963
O          2.92846       -0.84959       -0.41797
O          0.57968       -0.49360       -1.21219
O          1.34705        0.57834        0.87122
H          0.90697        1.38354        0.34755
C          0.97714       -1.98777        0.93858
H          1.16173       -2.91149        0.38848
H          1.56570       -1.96723        1.85585
H         -0.09134       -1.86332        1.13108
N         -2.16897       -1.08158        0.05907
C         -2.31082        0.22029        0.68257
C         -3.41120       -1.57385       -0.51040
H         -1.44911       -1.03062       -0.65727
H         -3.01856        0.15557        1.51638
H         -1.34609        0.54056        1.08813
H         -2.68431        1.00401       -0.00544
H         -4.14025       -1.74700        0.28901
H         -3.86922       -0.87852       -1.23686
H         -3.23344       -2.52811       -1.01277
N          0.20696        2.44498       -0.49958
H          0.88718        2.84991       -1.13679
C         -0.53096        3.49039        0.21930
H         -1.08444        4.16114       -0.44645
H         -1.23777        3.01836        0.90484
H          0.17036        4.08082        0.81211
H         -0.41164        1.87111       -1.06914
