33
1msa2eda_128.log	Energy: -655905.7416037
S          0.83096       -1.46778       -0.16547
O          0.28415       -0.81664       -1.37014
O          0.13238       -1.09675        1.08874
O          2.31428       -1.23242       -0.01420
H          2.39466        0.09189        0.80914
C          0.64876       -3.22630       -0.38678
H         -0.41549       -3.43602       -0.49791
H          1.19241       -3.51384       -1.28677
H          1.05491       -3.72752        0.49156
H          2.67567        3.08707        0.79725
H          3.81712        1.90639        0.09692
H          2.19677        2.90336       -1.61480
H          2.12608        1.13913       -1.50610
H          0.02546        2.94108       -0.85897
H          0.01109        1.28732       -0.98915
H          2.62126        1.13016        2.16481
H          1.21405        1.18721        1.25339
C          2.76548        2.11646        0.30214
C          1.90812        2.06727       -0.96926
N          2.24162        1.07676        1.22351
N          0.49963        2.08848       -0.59432
H         -2.04652        0.17756       -0.99094
H         -2.66730        1.82587       -1.09481
H         -1.69816        1.49105        1.10516
H         -3.45701        1.65257        1.28177
H         -1.91159       -0.81713        1.43221
H         -2.95880       -0.21441        2.53614
H         -4.29183       -0.53908       -0.55063
H         -4.86052        0.96744       -0.78192
C         -2.82734        0.85058       -0.61625
C         -2.66312        0.99636        0.90024
N         -4.11773        0.32843       -1.05162
N         -2.78859       -0.31017        1.54179
