33
1msa2eda_144.log	Energy: -655905.3591806
S          0.83193        1.40018        0.04742
O          2.25106        1.79395        0.02140
O          0.39139        0.79580        1.32463
O          0.48897        0.47031       -1.10445
H          0.60474       -0.94578       -0.48229
C         -0.15755        2.85238       -0.23747
H          0.02228        3.54387        0.58628
H          0.15347        3.29434       -1.18437
H         -1.20400        2.54101       -0.27589
H         -2.29157       -1.56795       -0.12316
H         -1.80320       -0.18603        0.88392
H         -3.85106       -1.13571        1.77454
H         -4.20016        0.46287        1.08985
H         -4.84466       -2.09794       -0.18201
H         -5.86689       -0.88902        0.22503
H         -1.67228        0.40063       -1.43456
H         -3.30459        0.13182       -1.61046
C         -2.55505       -0.52583        0.16348
C         -3.92114       -0.56433        0.83536
N         -2.57091        0.39522       -0.96059
N         -4.92596       -1.09032       -0.09198
H          2.33741       -3.35464        0.00856
H          1.85275       -2.69710       -1.57908
H          4.15931       -1.91655       -0.82615
H          3.02807       -0.59376       -1.13454
H          4.21896       -1.23159        1.35945
H          3.27779        0.06935        0.94220
H          0.12414       -2.44597        0.21650
H          1.20086       -1.42146        0.99366
C          2.09742       -2.44306       -0.54531
C          3.24727       -1.43036       -0.46384
N          0.90939       -1.81418        0.08298
N          3.36329       -0.94453        0.90499
