26
1msa1ma1dma_13.log	Energy: -561782.9706015
S         -1.58664        0.12055       -0.05115
O         -1.21702        1.19071       -0.99275
O         -0.61444        0.03058        1.10502
O         -1.76642       -1.21382       -0.66324
C         -3.14187        0.58293        0.69172
H         -3.88380        0.64742       -0.10462
H         -3.42064       -0.18115        1.41714
H         -3.01467        1.55120        1.17606
N          1.12612       -1.71772        0.16313
C          1.35748       -1.52185       -1.29022
C          2.36754       -1.74627        0.96353
H          0.48767       -0.93758        0.53954
H          1.96093       -2.34790       -1.67257
H          0.38476       -1.48529       -1.78119
H          1.87532       -0.56965       -1.40534
H          3.01240       -2.55928        0.62392
H          2.85645       -0.78084        0.82292
H          2.11121       -1.88384        2.01452
H          0.57491       -2.56492        0.30072
N          1.75819        1.46499        0.04157
H          0.98195        1.59885       -0.60659
C          2.71393        2.56528       -0.06357
H          2.27427        3.56278        0.08114
H          3.50780        2.43656        0.67923
H          3.18565        2.54698       -1.05065
H          1.30234        1.46660        0.95019
