28
1msa1ma1eda_188.log	Energy: -596499.7330070
S          1.97831       -0.21829       -0.05337
O          1.47351       -1.38343        0.66508
O          1.48107        0.08855       -1.37710
O          3.59209       -0.42303       -0.16096
H          3.79532       -1.31715        0.14870
C          1.89062        1.22688        0.96058
H          2.30612        0.98660        1.93895
H          2.46579        2.01124        0.46720
H          0.82389        1.50920        1.02041
H         -3.91908       -1.45952       -0.71915
H         -3.31962        0.09354       -1.32672
H         -1.63476       -1.66060       -1.67114
H         -1.04521       -0.44482       -0.54288
H         -1.87366       -3.14546        0.14259
H         -0.55327       -2.28749        0.61562
H         -4.29028        0.21237        0.95492
H         -3.02557       -0.70732        1.46652
C         -3.17817       -0.66141       -0.54433
C         -1.77565       -1.24991       -0.66093
N         -3.32377       -0.02962        0.76709
N         -1.54372       -2.22348        0.40493
N         -1.16225        2.20279        0.65483
H         -1.88563        1.49120        0.80363
C         -1.10831        2.56984       -0.76023
H         -2.06444        2.92144       -1.17569
H         -0.36401        3.35847       -0.91215
H         -0.77866        1.70620       -1.34553
H         -1.42597        3.00778        1.21405
