35
1msa2tma_07.log	Energy: -635760.2948924
N          1.54157       -1.71243       -0.07866
C          0.81797       -1.85242        1.20836
H          1.07489       -0.99691        1.83455
H         -0.25398       -1.84232        1.00916
H          1.10644       -2.79179        1.68751
C          1.17591       -2.77274       -1.03959
H          0.09750       -2.74583       -1.19813
H          1.68346       -2.58409       -1.98629
H          1.47226       -3.74788       -0.64420
C          3.00489       -1.61597        0.13056
H          3.48825       -1.48278       -0.83820
H          3.19247       -0.73971        0.75278
H          3.36804       -2.52965        0.60865
S          0.86701        1.59009        0.06447
O          1.88544        1.19593        1.06486
O         -0.46634        1.87253        0.60416
O          0.83090        0.56932       -1.05852
H          1.23073       -0.75783       -0.50817
C          1.44910        3.08603       -0.71744
H          2.42951        2.89540       -1.15377
H          0.73054        3.37035       -1.48627
H          1.51161        3.85683        0.05118
N         -3.33354       -0.61381       -0.04156
C         -2.36077       -1.20474       -0.94291
H         -2.16969       -2.24216       -0.63674
H         -2.76777       -1.23216       -1.95906
H         -1.40515       -0.64754       -0.97177
C         -3.67600        0.73815       -0.46628
H         -4.09294        0.70654       -1.47817
H         -4.44277        1.14342        0.20128
H         -2.80707        1.41725       -0.45531
C         -2.84282       -0.61721        1.32852
H         -3.61046       -0.21079        1.99415
H         -2.64818       -1.65016        1.64265
H         -1.92585       -0.01483        1.45284
