33
1msa2eda_89.log	Energy: -655911.6891384
S         -0.84762        1.89305       -0.11121
O         -1.84899        2.77521       -0.70106
O          0.23380        1.44335       -1.03592
O         -1.43124        0.68756        0.58935
H         -0.87038       -0.56211       -0.23415
C         -0.03159        2.80841        1.19178
H         -0.78399        3.09590        1.92647
H          0.73102        2.17245        1.64415
H          0.41929        3.69586        0.74551
H          2.47032       -0.44784       -1.43909
H          4.19066       -0.24555       -1.12702
H          3.34374       -2.47673       -0.37656
H          4.03247       -1.52762        0.95608
H          1.90179       -2.40800        1.61229
H          1.78209       -0.78238        1.42016
H          3.65888        1.48718        0.24444
H          2.08903        1.34488       -0.26844
C          3.21182       -0.32937       -0.63964
C          3.20117       -1.58154        0.23885
N          2.87691        0.85293        0.15009
N          1.90197       -1.66542        0.92016
H         -1.35143       -2.79681        1.23410
H         -2.45768       -3.81212        0.30190
H         -0.57930       -3.40822       -1.12008
H         -1.91630       -2.39923       -1.73279
H          0.48595       -1.55431       -0.16907
H         -0.08114       -0.93825       -1.62754
H         -3.78019       -2.11617        1.20843
H         -2.82779       -0.90482        0.64210
C         -2.04057       -2.80252        0.37054
C         -1.23068       -2.55830       -0.89812
N         -3.14168       -1.85820        0.46607
N         -0.37784       -1.35416       -0.74503
