28
1msa1ma1eda_02.log	Energy: -596524.0661996
S         -1.58780       -0.78455       -0.04800
O         -2.28579        0.30707       -0.75947
O         -1.10581       -0.39747        1.29965
O         -0.48308       -1.38670       -0.86878
C         -2.77823       -2.09669        0.17265
H         -3.59918       -1.70598        0.77429
H         -3.13441       -2.40238       -0.81130
H         -2.28765       -2.92660        0.68158
H          2.62251        0.78552        1.21764
H          1.22808       -0.30924        1.43376
H          3.37357       -1.61109        1.37416
H          2.31820       -2.00949        0.01358
H          4.73876       -0.36823       -0.11749
H          4.28900       -1.61505       -1.07405
H          0.85726        1.34457       -0.31121
H          2.17471        0.60048       -1.18218
C          2.04874       -0.03127        0.76797
C          2.94263       -1.22000        0.44316
N          1.43934        0.46424       -0.48643
N          3.94117       -0.82023       -0.55172
H          0.75450       -0.26610       -0.82425
N         -0.40411        2.43928        0.15135
H         -1.18681        2.00779       -0.34873
C         -0.37202        3.88802       -0.05078
H         -1.29505        4.39381        0.25923
H          0.46194        4.32351        0.50720
H         -0.20967        4.10009       -1.11092
H         -0.58499        2.20456        1.12497
