31
1msa1dma1eda_67.log	Energy: -621178.2523543
S          1.91722        0.01881        0.13099
O          2.11038       -1.40749       -0.19181
O          1.24990        0.26816        1.42426
O          1.22131        0.74462       -0.99642
C          3.53521        0.76973        0.22230
H          4.04099        0.61358       -0.73059
H          3.40951        1.83330        0.42563
H          4.07990        0.28470        1.03277
H         -1.67120       -2.54150       -1.58356
H          0.07626       -2.28065       -1.29978
H         -0.80742       -3.12951        0.73911
H         -0.48292       -1.42097        0.99980
H         -3.13471       -2.60873        0.57047
H         -2.62425       -1.68763        1.81484
H         -1.32259       -0.43829       -2.41200
H         -1.75816        0.03506       -0.85687
C         -0.93085       -1.95589       -1.02995
C         -1.13800       -2.11778        0.46707
N         -1.06561       -0.52782       -1.43221
N         -2.52997       -1.83121        0.81592
H         -0.13187       -0.01976       -1.30217
N         -2.32279        1.56452       -0.06832
C         -1.63433        2.64666       -0.77472
C         -1.91414        1.48303        1.33676
H         -3.32626        1.70910       -0.11603
H         -0.56210        2.42594       -0.79851
H         -2.00103        2.70917       -1.80416
H         -1.77699        3.62663       -0.29480
H         -0.85596        1.20638        1.39454
H         -2.05457        2.43709        1.86737
H         -2.50348        0.70987        1.83323
