33
1msa2eda_103.log	Energy: -655911.8234380
S         -2.49096       -0.10022       -0.04700
O         -3.36214       -0.96020       -0.84375
O         -1.22494        0.30283       -0.77608
O         -2.14593       -0.61818        1.30577
H         -0.18841       -0.90313        1.55499
C         -3.35922        1.44023        0.21934
H         -3.56938        1.88569       -0.75350
H         -4.28873        1.21405        0.74269
H         -2.73115        2.09689        0.82256
H          1.11757       -2.90145        1.16429
H         -0.18616       -2.68164       -0.02510
H          1.84286       -3.27911       -1.24438
H          1.45918       -1.60612       -1.59233
H          3.18454       -0.99811        0.05163
H          3.58089       -2.58513        0.19490
H          1.38388       -0.39881        1.08069
H          0.01063       -0.36294        0.06491
C          0.77372       -2.29161        0.32379
C          1.80822       -2.27984       -0.80107
N          0.52343       -0.91385        0.81163
N          3.15952       -1.89762       -0.41994
H          3.49596        2.72381        0.12649
H          3.86271        1.13750       -0.56884
H          2.11461        2.35400       -1.86792
H          1.53930        0.81776       -1.24667
H          0.70419        3.44122       -0.36720
H         -0.14094        2.02299       -0.47710
H          3.50709        1.02862        1.84282
H          1.99161        1.61832        1.62445
C          3.08879        1.71828       -0.05554
C          1.84921        1.82354       -0.94356
N          2.72118        1.04396        1.20036
N          0.74797        2.44176       -0.20928
