34
1msa1eda1tma_35.log	Energy: -645837.5951202
S          1.55690        1.04756       -0.15280
O          3.01311        0.91817       -0.06491
O          0.84141        0.93268        1.14630
O          0.94356        0.08600       -1.15046
H          0.52769       -1.17488       -0.38527
C          1.18217        2.66535       -0.80510
H          1.61384        3.40192       -0.12640
H          1.63367        2.74663       -1.79398
H          0.09760        2.78078       -0.85200
H         -2.62135        0.23071        1.38359
H         -3.81426        1.34477        0.71626
H         -2.76273        1.31203       -1.46134
H         -1.35343        0.44803       -0.84598
H         -4.04380       -0.73364       -0.81991
H         -2.91182       -1.03716       -1.94288
H         -2.29551        2.72547        1.76987
H         -0.98507        1.92934        1.18017
C         -2.75587        1.05729        0.66659
C         -2.43774        0.55136       -0.73738
N         -1.93737        2.22590        0.96448
N         -3.03923       -0.77053       -0.97149
N          0.39909       -2.10164        0.15455
C         -0.65078       -1.90269        1.18324
H         -0.37590       -1.02198        1.76589
H         -1.60327       -1.73513        0.67293
H         -0.70336       -2.79346        1.81558
C          0.01534       -3.12693       -0.83765
H         -0.94382       -2.84274       -1.27214
H          0.77891       -3.16822       -1.61540
H         -0.07371       -4.09920       -0.34614
C          1.72349       -2.37200        0.76397
H          2.47738       -2.38806       -0.02359
H          1.95460       -1.56076        1.45520
H          1.69216       -3.33046        1.28825
