25
1msa1a1eda_10.log	Energy: -571866.0311428
S          1.48099       -0.14364        0.04286
O          0.90642       -0.07267       -1.31962
O          0.56241       -0.88047        0.98312
O          1.88675        1.16671        0.59141
C          2.94868       -1.15377       -0.05212
H          2.67048       -2.12869       -0.45260
H          3.65434       -0.65341       -0.71581
H          3.36426       -1.24972        0.95092
H         -3.34675       -0.39631        1.19473
H         -3.42746        1.01653        0.10564
H         -3.37455       -0.91052       -1.28355
H         -1.74881       -0.21122       -1.39676
H         -1.95487       -2.69709       -0.98935
H         -0.97854       -1.91962        0.06667
H         -1.78286        1.16999        1.97562
H         -0.80741        0.05452        1.17623
C         -2.80747        0.17974        0.43975
C         -2.44858       -0.73473       -0.72692
N         -1.58644        0.76179        1.06467
N         -1.94642       -2.01338       -0.24140
H         -1.18643        1.52768        0.43072
N         -0.38503        2.56103       -0.68436
H         -0.70577        3.44460       -1.06469
H         -0.15396        1.92855       -1.45128
H          0.50731        2.70077       -0.20824
