34
1msa1eda1tma_57.log	Energy: -645832.3177718
S          0.41325       -1.57207       -0.08341
O          0.13271       -0.95927        1.23693
O          1.52418       -2.53281       -0.08969
O          0.62177       -0.47097       -1.11733
H          1.58563        0.45310       -0.52778
C         -1.05682       -2.41837       -0.61858
H         -1.22670       -3.23432        0.08562
H         -1.90415       -1.72468       -0.61398
H         -0.87013       -2.81391       -1.61746
H         -3.65026        1.03037        1.57812
H         -2.31041       -0.13765        1.50895
H         -1.54776        2.03879        0.77452
H         -1.48239        0.88055       -0.56337
H         -3.49426        2.99312       -0.23099
H         -2.52413        2.70358       -1.52050
H         -4.38921       -0.99876        0.50159
H         -4.24609        0.14613       -0.67141
C         -2.99289        0.46079        0.89666
C         -2.16383        1.44450        0.08149
N         -3.72839       -0.42128       -0.00577
N         -3.03497        2.26331       -0.76534
N          2.29463        1.12789       -0.01334
C          3.21361        0.26192        0.76540
H          2.62365       -0.29913        1.49065
H          3.68942       -0.44562        0.08603
H          3.96134        0.88410        1.26504
C          3.00597        1.90252       -1.04792
H          3.55244        1.21240       -1.69165
H          2.27676        2.45005       -1.64652
H          3.70186        2.60282       -0.57754
C          1.47439        1.98080        0.87526
H          0.81914        2.59936        0.26029
H          0.86752        1.32059        1.49822
H          2.12503        2.61420        1.48480
