31
1msa1dma1eda_95.log	Energy: -621175.6481593
S         -1.89474       -0.35991       -0.05468
O         -3.24787        0.18482       -0.16142
O         -1.29168       -0.29934        1.30291
O         -0.92841        0.27870       -1.03913
H         -0.22909        1.38579       -0.22254
C         -1.94286       -2.07820       -0.53077
H         -2.62488       -2.58898        0.15006
H         -2.31390       -2.13553       -1.55442
H         -0.93238       -2.48428       -0.44812
H          2.96611       -0.75699        1.26070
H          3.31422       -2.42879        0.81398
H          3.91829       -0.91680       -0.98519
H          2.64127       -2.04578       -1.48266
H          2.27350        0.27971       -2.15203
H          1.06186       -0.24987       -1.21491
H          1.21427       -2.59831        1.67097
H          0.63288       -1.24186        0.99527
C          2.64794       -1.58488        0.60443
C          2.86163       -1.17445       -0.84745
N          1.27468       -2.01803        0.84255
N          2.05337       -0.00264       -1.20167
N          0.13434        2.23674        0.33710
C          0.74977        3.18565       -0.61369
C          1.04334        1.79086        1.41895
H         -0.71000        2.63730        0.74707
H          1.61711        2.69024       -1.05186
H          0.02451        3.42297       -1.39234
H          1.05584        4.09426       -0.09149
H          1.89322        1.30309        0.93907
H          1.36525        2.65493        2.00443
H          0.49575        1.07774        2.03515
