31
1msa1dma1eda_26.log	Energy: -621182.4885013
S          1.85482       -0.00929       -0.00633
O          1.85462        1.19003        0.84968
O          1.04550        0.15367       -1.24493
O          1.44025       -1.24381        0.74174
H         -0.11979       -0.93116        1.13976
C          3.53515       -0.30878       -0.52267
H          3.87602        0.56708       -1.07516
H          4.14105       -0.46129        0.37050
H          3.54759       -1.19497       -1.15719
H         -2.77395       -0.96866       -0.82534
H         -3.01524       -2.68218       -0.54794
H         -3.04258       -1.41777        1.56298
H         -1.72209       -2.60459        1.54407
H         -1.28412        0.27687        0.75935
H         -1.10423       -0.33915        2.34589
H         -0.48344       -1.34488       -1.29961
H         -0.57642       -2.91863       -0.84937
C         -2.29262       -1.86667       -0.42377
C         -2.09299       -1.68203        1.08735
N         -1.11435       -2.14073       -1.21430
N         -1.10641       -0.61024        1.36510
N         -1.30063        1.63931       -0.21110
C         -1.02121        2.78970        0.64808
C         -2.41815        1.85938       -1.12278
H         -0.45980        1.41391       -0.75008
H         -1.84141        2.92649        1.36269
H         -0.08955        2.60299        1.18730
H         -0.91090        3.72140        0.07497
H         -3.35768        1.90969       -0.56098
H         -2.31353        2.79394       -1.69276
H         -2.48124        1.03241       -1.83489
