33
1msa2eda_26.log	Energy: -655918.0697739
S         -2.03748       -0.22837        0.07617
O         -2.29993        1.11841        0.61452
O         -1.27649       -1.11618        0.98256
O         -1.40283       -0.15983       -1.28926
C         -3.61852       -1.01383       -0.19264
H         -4.20582       -0.38400       -0.86099
H         -3.44566       -1.99460       -0.63596
H         -4.10980       -1.11052        0.77589
H          1.25833        3.36908       -0.46675
H         -0.47463        2.98493       -0.23373
H          0.56491        2.60296        1.85877
H          0.19196        1.03462        1.19225
H          2.81076        2.11700        1.69112
H          2.28941        0.54047        1.58798
H          0.51057        2.08898       -2.28984
H          1.45948        1.01319       -1.42106
C          0.53675        2.57309       -0.26236
C          0.85049        1.89768        1.06852
N          0.58409        1.60641       -1.39702
N          2.24316        1.46732        1.16166
H         -0.23598        0.92306       -1.34542
H          0.72195       -1.32279       -1.08848
H          1.94677       -2.24592       -1.94210
H          1.53392       -3.31368        0.16682
H          3.14631       -2.58254        0.27246
H          0.68120       -1.41445        1.36564
H          1.92660       -2.03476        2.22825
H          2.83361        0.03577       -0.35667
H          3.45662       -0.57190       -1.74850
C          1.78532       -1.59097       -1.08022
C          2.07433       -2.35536        0.20920
N          2.59063       -0.37041       -1.26159
N          1.69683       -1.54388        1.37040
