33
1msa2eda_52.log	Energy: -655915.2831111
S          2.18760       -0.43590        0.02586
O          2.64151        0.96315       -0.02351
O          1.70581       -0.96700       -1.28170
O          1.17353       -0.68791        1.10355
H         -0.36872       -0.96122        0.31995
C          3.61353       -1.41587        0.46678
H          4.36636       -1.28039       -0.31021
H          3.98539       -1.05802        1.42715
H          3.31188       -2.46123        0.53366
H         -2.27358        3.41278        0.23778
H         -2.43265        1.94413        1.21372
H         -0.26667        3.12490        1.61864
H         -0.02776        1.48258        1.03441
H          0.53165        3.90920       -0.42569
H          1.28644        2.43982       -0.44067
H         -2.94491        1.69130       -1.24157
H         -1.33568        1.95327       -1.48755
C         -1.87521        2.39828        0.38497
C         -0.38739        2.47463        0.74123
N         -2.02437        1.57989       -0.82820
N          0.38099        2.90768       -0.42126
H         -2.33783       -2.22487       -1.54913
H         -1.19151       -3.09505       -0.50068
H         -3.39086       -3.09969        0.52799
H         -2.29232       -2.12272        1.50643
H         -4.55305       -1.14044        1.00881
H         -3.34237       -0.16181        0.51357
H         -0.15654       -1.07889       -1.24707
H         -1.43186       -0.10192       -0.69234
C         -1.82061       -2.20578       -0.58724
C         -2.83297       -2.15884        0.54674
N         -0.93166       -1.02549       -0.55979
N         -3.78038       -1.06461        0.35747
