29
1msa2dma_20.log	Energy: -586438.6924156
S         -1.82786       -0.30873        0.07413
O         -2.16585       -0.20239        1.49688
O         -0.45670       -0.86650       -0.17160
O         -1.98103        0.98159       -0.67775
H         -0.43489        1.69796       -0.60614
C         -2.97221       -1.45307       -0.67327
H         -2.86262       -2.41289       -0.16807
H         -3.97788       -1.05658       -0.53177
H         -2.73609       -1.54263       -1.73340
N          0.55889        1.65200       -0.25488
C          0.57581        2.17414        1.13118
C          1.52422        2.27750       -1.17510
H          0.66032        0.61653       -0.22713
H          0.32975        3.23672        1.11245
H         -0.17381        1.62884        1.70772
H          1.56611        2.02394        1.56338
H          1.31397        3.34568       -1.24763
H          2.53624        2.12284       -0.79710
H          1.42470        1.81366       -2.15655
N          2.34378       -1.80144        0.26602
C          2.72855       -1.54423       -1.10399
C          2.95515       -0.89334        1.20799
H          1.33147       -1.77139        0.34874
H          3.79729       -1.74635       -1.24087
H          2.16730       -2.19863       -1.77439
H          2.55133       -0.49677       -1.42790
H          4.03530       -1.07208        1.26270
H          2.82375        0.17974        0.94648
H          2.53425       -1.05028        2.20428
