23
1msa1a1dma_12.log	Energy: -537118.3017531
S          0.75328       -0.28627       -0.06441
O          0.06222       -0.54435       -1.31715
O          1.01689        1.10563        0.30814
O          2.13163       -1.07488       -0.04314
H          2.91345       -0.40870       -0.07294
C         -0.13082       -1.09069        1.24507
H         -1.13429       -0.64350        1.26348
H         -0.18480       -2.15430        1.01077
H          0.40372       -0.92127        2.17947
N         -3.05404        0.26052        0.51407
C         -3.34220       -0.69826       -0.54587
C         -2.67206        1.56798       -0.00633
H         -3.86406        0.35791        1.11648
H         -2.42545       -0.88497       -1.11386
H         -3.67268       -1.64404       -0.10649
H         -4.11624       -0.35084       -1.25142
H         -1.73953        1.47268       -0.56978
H         -3.43041        2.00751       -0.67688
H         -2.49268        2.25850        0.82192
N          3.97396        0.81683       -0.09113
H          4.70172        0.81543        0.61559
H          3.32810        1.57944        0.10645
H          4.40581        0.98964       -0.99298
