31
1msa1dma1eda_46.log	Energy: -621180.6596463
S          1.14259        1.34042       -0.07053
O          2.43337        0.61990       -0.05012
O          0.42297        1.31927        1.22113
O          0.25382        0.85437       -1.18647
C          1.50457        3.04422       -0.45876
H          0.56551        3.59693       -0.49081
H          2.15431        3.43307        0.32566
H          2.00666        3.07557       -1.42571
H         -0.27178       -3.54046        0.20550
H         -0.26071       -2.91891       -1.46657
H          2.04490       -3.65714       -0.61393
H          1.97862       -1.98022       -1.17264
H          2.69517       -2.80819        1.38414
H          2.43823       -1.25433        0.86284
H         -1.45921       -1.32463        0.07984
H         -0.00865       -1.27222        0.95709
C          0.10248       -2.75010       -0.45019
C          1.63330       -2.66784       -0.39150
N         -0.42402       -1.45931        0.03489
N          2.03982       -2.19103        0.92574
H         -0.11572       -0.65403       -0.57549
N         -2.79109        0.02103       -0.06890
C         -2.89503        0.65267        1.24756
C         -4.08656       -0.17860       -0.70744
H         -2.20674        0.61509       -0.65674
H         -3.38363       -0.03705        1.94430
H         -1.89064        0.88479        1.61211
H         -3.48154        1.58419        1.22339
H         -4.68455       -0.87126       -0.10641
H         -4.65950        0.75568       -0.81562
H         -3.94900       -0.61893       -1.69872
