29
1msa2dma_45.log	Energy: -586423.9696178
S          0.05235        1.67558       -0.10096
O          0.00378        0.72822       -1.20127
O         -0.81496        2.84159       -0.10291
O          1.58300        2.23847       -0.02588
H          1.54278        3.20277       -0.09720
C         -0.05932        0.79561        1.42987
H         -1.06908        0.36927        1.43836
H          0.68842       -0.00368        1.40397
H          0.09938        1.50088        2.24500
N         -2.45500       -0.86613        0.01788
C         -3.88910       -1.02091       -0.16094
C         -1.77310       -2.12459        0.27461
H         -2.04718       -0.42879       -0.80302
H         -4.33636       -1.37566        0.77412
H         -4.33703       -0.05304       -0.39991
H         -4.15967       -1.73852       -0.95496
H         -2.14174       -2.55243        1.21387
H         -1.92262       -2.87918       -0.51765
H         -0.69975       -1.94411        0.38635
N          1.91144       -1.52514       -0.02025
C          2.00140       -2.96421       -0.20825
C          3.21974       -0.89888        0.10629
H          1.41011       -1.10232       -0.79659
H          2.42544       -3.42309        0.69159
H          1.00390       -3.38592       -0.35985
H          2.63457       -3.25642       -1.06402
H          3.70055       -1.24571        1.02786
H          3.89820       -1.12883       -0.73332
H          3.10499        0.18617        0.16839
