33
1msa2eda_01.log	Energy: -655923.1259880
S         -1.72587        0.72000       -0.02594
O         -1.65477       -0.16535       -1.21081
O         -0.76024        1.84635       -0.08832
O         -1.61516       -0.03875        1.25857
H         -0.04720       -0.75026        1.28453
C         -3.35732        1.44335       -0.01854
H         -3.48347        1.99522       -0.95022
H         -4.08814        0.63775        0.05344
H         -3.43100        2.11136        0.83968
H          1.98321       -2.85120        0.67961
H          0.88886       -2.91890        2.08653
H          0.02756       -4.24602        0.19264
H         -1.07378       -2.92754        0.61297
H         -0.32992       -3.36425       -1.85282
H         -0.52497       -1.83042       -1.32838
H          1.57614       -0.60879        1.65948
H          1.13825       -0.66970        0.07647
C          0.99745       -2.56643        1.05668
C         -0.09401       -3.15840        0.16919
N          0.91408       -1.09165        1.04628
N          0.03378       -2.67757       -1.20318
H          2.02717        2.88538       -0.48021
H          3.57765        2.51399        0.27940
H          3.29638        1.37891       -1.87448
H          3.55042        0.24215       -0.54000
H          0.81785        0.86346       -1.45428
H          1.68915       -0.41595       -2.02936
H          2.13900        2.27807        2.00489
H          0.92087        1.70518        1.08840
C          2.60063        2.09218        0.02187
C          2.83589        0.95554       -0.97017
N          1.92967        1.63790        1.24657
N          1.59467        0.23363       -1.25580
