31
1msa1dma1eda_58.log	Energy: -621179.7540246
S         -1.20525       -1.31642       -0.14676
O         -2.50781       -1.13418       -0.79372
O         -1.08335       -0.66671        1.18605
O         -0.04690       -0.89591       -1.01973
C         -0.97351       -3.06794        0.11217
H         -1.77473       -3.41771        0.76375
H         -1.02395       -3.56429       -0.85712
H         -0.00143       -3.22627        0.57976
H          0.07914        3.58594       -0.24745
H         -0.10372        2.63267       -1.74798
H         -2.31602        3.29956       -0.66718
H         -2.13244        1.55560       -0.88461
H         -2.66465        2.77414        1.49624
H         -2.02445        1.26017        1.34826
H          1.52384        1.56693       -0.12746
H          0.21742        1.46442        0.92665
C         -0.27863        2.64376       -0.66982
C         -1.75593        2.42346       -0.32807
N          0.49267        1.53977       -0.05922
N         -1.89290        2.24385        1.11580
H          0.24423        0.60434       -0.49793
N          2.88060        0.04675       -0.12976
C          2.68276       -0.55258        1.18951
C          4.28632        0.12537       -0.50633
H          2.37109       -0.51929       -0.80620
H          3.08845        0.11406        1.95843
H          1.61310       -0.69077        1.37505
H          3.17930       -1.53017        1.29371
H          4.80903        0.80143        0.17818
H          4.79761       -0.84997       -0.47225
H          4.37802        0.53139       -1.51703
