34
1msa1eda1tma_33.log	Energy: -645836.6119258
S         -0.48986        1.66969       -0.08306
O          0.55054        1.88095       -1.09957
O         -0.04480        0.92665        1.11810
O         -1.74291        1.03974       -0.64645
H         -1.82237       -0.41971       -0.22217
C         -1.00732        3.28694        0.46796
H         -0.13659        3.78554        0.89448
H         -1.38105        3.83731       -0.39557
H         -1.78741        3.16501        1.21942
H          3.18207        0.70080        0.72271
H          4.33741       -0.55174        1.16177
H          4.19346       -0.34746       -1.24472
H          3.65579       -1.94956       -0.72467
H          1.74460        0.21415       -1.32537
H          2.16179       -0.97629       -2.36414
H          1.44013       -0.50777        1.40683
H          2.22014       -1.96203        1.38084
C          3.34534       -0.38301        0.72281
C          3.38276       -0.88458       -0.72399
N          2.32721       -0.97269        1.58303
N          2.08332       -0.74836       -1.37842
N         -1.89689       -1.47895       -0.01482
C         -1.67648       -1.68165        1.43625
H         -0.70914       -1.25783        1.69932
H         -2.45152       -1.14794        1.98727
H         -1.72031       -2.75059        1.66061
C         -3.25310       -1.89453       -0.43050
H         -3.98803       -1.34289        0.15688
H         -3.38632       -1.65774       -1.48645
H         -3.37584       -2.96860       -0.26944
C         -0.83849       -2.12947       -0.82692
H         -1.05641       -1.95170       -1.88099
H          0.13862       -1.68329       -0.60512
H         -0.83557       -3.20363       -0.62139
