31
1msa1dma1eda_63.log	Energy: -621177.3143939
S          2.15600       -0.45931        0.05011
O          2.89399       -1.71506       -0.08985
O          1.04180       -0.52329        1.06391
O          1.64038        0.10937       -1.23073
C          3.29907        0.75326        0.69830
H          2.77379        1.69940        0.83285
H          3.67998        0.38410        1.65091
H          4.11119        0.86327       -0.02104
H         -2.37982       -1.68747       -1.76584
H         -1.10415       -2.62710       -0.96939
H         -3.18153       -2.96215        0.25506
H         -2.05020       -2.04600        1.25489
H         -4.35381       -0.90770       -0.15559
H         -4.01374       -0.85504        1.44124
H         -0.26758       -0.42640       -1.42431
H         -1.52227        0.33730       -0.60083
C         -1.78522       -1.78063       -0.85173
C         -2.68079       -1.98894        0.36152
N         -0.97588       -0.56161       -0.68877
N         -3.59619       -0.86114        0.51804
H         -0.34901       -0.61566        0.16066
N         -1.66945        2.09367       -0.22992
C         -0.62654        2.79361       -0.98080
C         -1.39981        2.05851        1.20769
H         -2.57131        2.52698       -0.39514
H          0.30117        2.21244       -0.93440
H         -0.91979        2.87217       -2.03108
H         -0.43047        3.80523       -0.59399
H         -0.46891        1.50841        1.38417
H         -1.29720        3.06186        1.64794
H         -2.21130        1.52592        1.71016
