28
1msa1ma1eda_68.log	Energy: -596519.2932904
S         -1.70567       -0.54533        0.09913
O         -1.96539        0.77699       -0.51633
O         -1.63659       -0.52416        1.56950
O         -0.49387       -1.20018       -0.51673
C         -3.07347       -1.59971       -0.35484
H         -3.98173       -1.15851        0.05646
H         -3.12699       -1.65046       -1.44236
H         -2.90015       -2.58739        0.07293
H          0.27315        0.93539        1.30181
H          1.98048        1.35142        1.51929
H          0.26167        3.30404        1.22947
H          1.77241        3.40585        0.31034
H         -0.73408        2.35497       -0.82217
H          0.01766        3.78014       -1.22552
H          0.72256       -0.15893       -0.51994
H          1.38864        1.22026       -1.20105
C          1.14068        1.39460        0.82242
C          0.83668        2.84377        0.41478
N          1.46927        0.59040       -0.39018
N          0.16500        2.84089       -0.87852
H          2.38881        0.10616       -0.31540
N          3.56335       -1.28335        0.11498
H          4.47174       -1.32145       -0.33632
C          2.74114       -2.44208       -0.27662
H          3.18502       -3.40591       -0.00210
H          1.75265       -2.36012        0.18265
H          2.59350       -2.42340       -1.35913
H          3.73863       -1.30316        1.11519
