33
1msa2eda_151.log	Energy: -655906.4258714
S         -0.23928       -0.80148       -0.24435
O         -0.75540       -1.31313        1.03875
O          0.21950        0.60857       -0.18248
O         -1.24798       -0.95986       -1.36179
H         -2.11787        0.29157       -1.27086
C          1.14326       -1.81837       -0.71461
H          1.88130       -1.80268        0.08966
H          0.77135       -2.83071       -0.87387
H          1.57233       -1.40929       -1.63006
H          2.51457        0.13381        1.28966
H          4.03663        0.52170        2.07810
H          3.22070        2.43459        0.76703
H          4.72912        1.82774        0.05415
H          2.03525        1.22202       -0.94051
H          3.21435        2.06809       -1.72226
H          4.00936       -0.83185       -0.49114
H          5.19383       -0.83137        0.62841
C          3.57692        0.33382        1.10209
C          3.67234        1.58605        0.22730
N          4.18600       -0.85700        0.51130
N          3.04326        1.31651       -1.06488
H         -4.66421        1.56920       -0.28539
H         -4.51328        0.05757       -1.22400
H         -4.74589       -0.29430        1.31099
H         -3.30318       -1.03310        0.59977
H         -3.33675        1.04014        2.53116
H         -2.05798        0.17646        1.91639
H         -2.78657        1.82134       -1.72841
H         -2.22633        1.55766       -0.16777
C         -4.04300        0.68768       -0.46642
C         -3.78227       -0.07894        0.83798
N         -2.72507        1.14387       -0.97359
N         -2.89431        0.70931        1.68496
