31
1msa1dma1eda_100.log	Energy: -621173.5467518
S          0.17960        1.36492        0.00765
O          1.43628        2.00601       -0.41579
O          0.17049        0.90894        1.41539
O         -0.19419        0.20937       -0.90550
H          0.37763       -1.04977       -0.14898
C         -1.13881        2.54587       -0.18875
H         -0.93800        3.38035        0.48371
H         -1.14407        2.88026       -1.22649
H         -2.07674        2.04799        0.06670
H          2.68617       -2.93614        0.21524
H          1.72927       -2.70349       -1.27472
H          3.89025       -1.35718       -1.25537
H          2.44225       -0.35498       -1.42305
H          4.27828       -0.30008        0.74256
H          3.00124        0.70705        0.41330
H          0.41634       -2.45423        0.84065
H          1.36722       -1.11512        1.17912
C          2.12572       -2.21304       -0.38307
C          2.99638       -0.99932       -0.73347
N          0.98714       -1.71910        0.43110
N          3.30163       -0.26283        0.48607
N         -3.03462       -0.47129       -0.08672
C         -4.06625       -1.18541       -0.81238
C         -2.61201       -1.14961        1.12210
H         -2.22304       -0.30515       -0.67610
H         -4.98925       -1.20709       -0.22134
H         -4.28366       -0.66917       -1.75135
H         -3.79908       -2.23352       -1.04765
H         -3.43741       -1.18183        1.84243
H         -2.29663       -2.20095        0.94771
H         -1.78436       -0.59861        1.57876
