31
1msa1dma1eda_98.log	Energy: -621174.4907413
S          0.20693        1.55170       -0.00787
O          1.34824        2.41212        0.30500
O         -0.06458        0.49460        1.01021
O          0.30783        0.90750       -1.37363
H          0.66374       -0.54889       -1.19356
C         -1.25953        2.56181       -0.08456
H         -2.11300        1.91138       -0.28742
H         -1.37194        3.05303        0.88250
H         -1.12315        3.29965       -0.87552
H          2.75411       -2.68915       -0.83531
H          2.89586       -1.16228       -1.75562
H          3.94818       -1.11314        0.58558
H          2.76208        0.15914        0.29740
H          2.62274       -1.76232        2.30117
H          1.42707       -0.70339        1.84960
H          0.59657       -2.21047       -1.64859
H          0.61913       -1.78968       -0.03043
C          2.46717       -1.63501       -0.86978
C          2.88363       -0.92233        0.42272
N          0.98591       -1.56425       -0.96707
N          2.06913       -1.42452        1.52633
N         -2.76097       -0.64535        0.15871
C         -2.43631       -1.26502       -1.10812
C         -3.56016       -1.49696        1.01825
H         -1.90841       -0.35494        0.63373
H         -3.35178       -1.43637       -1.68590
H         -1.79048       -0.59847       -1.68762
H         -1.93649       -2.25257       -1.00345
H         -4.54242       -1.66702        0.56225
H         -3.10370       -2.48715        1.20652
H         -3.71817       -1.00456        1.98114
