26
1msa1ma1dma_40.log	Energy: -561777.4913100
S          1.38381        0.16288       -0.00934
O          0.59126        0.45539        1.20100
O          0.96580        0.91782       -1.20257
O          1.41854       -1.33125       -0.27549
H          0.05699       -1.85341       -0.25409
C          3.08132        0.58411        0.33172
H          3.12192        1.65646        0.52471
H          3.40790        0.02116        1.20589
H          3.67896        0.32825       -0.54323
N         -1.01863       -2.11417       -0.23858
C         -1.68842       -1.23995       -1.23181
C         -1.51460       -1.93690        1.14760
H         -1.10853       -3.08820       -0.52148
H         -1.50506       -0.20029       -0.95577
H         -1.24421       -1.41966       -2.21067
H         -2.76044       -1.44635       -1.24796
H         -1.25941       -0.92271        1.46028
H         -2.59332       -2.10230        1.18226
H         -0.99902       -2.64678        1.79478
N         -1.72079        2.48756       -0.47829
H         -2.30714        2.42062       -1.30055
C         -2.35643        1.95450        0.71322
H         -2.75934        0.92808        0.61796
H         -1.62376        1.93928        1.52276
H         -3.18714        2.60097        1.01622
H         -0.81933        2.05876       -0.67144
