31
1msa1dma1eda_74.log	Energy: -621177.7030225
S          2.11209       -0.21987       -0.10132
O          2.33085        1.21324        0.17954
O          1.58098       -0.51158       -1.44447
O          1.26868       -0.85624        0.98061
C          3.69684       -1.03320        0.03200
H          4.09728       -0.84961        1.02904
H          3.55067       -2.10015       -0.13720
H          4.35294       -0.61094       -0.72978
H         -1.39671        2.69849        1.24822
H          0.34932        2.35788        1.03802
H         -0.47481        2.89453       -1.12029
H         -0.19475        1.16071       -1.10678
H         -2.81958        2.46512       -0.92254
H         -2.30570        1.37010       -2.01385
H         -0.97437        0.75054        2.43272
H         -1.62054        0.09353        1.02595
C         -0.66200        2.01737        0.80680
C         -0.83971        1.94683       -0.70142
N         -0.83290        0.67632        1.42825
N         -2.23194        1.64544       -1.04057
H          0.04723        0.07684        1.27647
N         -2.44485       -1.42109        0.46725
C         -1.65274       -1.77930       -0.71381
C         -3.86295       -1.24906        0.16560
H         -2.33371       -2.15322        1.16275
H         -1.72498       -0.96916       -1.44320
H         -0.60010       -1.88438       -0.44163
H         -2.00625       -2.70568       -1.19021
H         -3.97091       -0.37817       -0.48667
H         -4.30429       -2.12540       -0.33374
H         -4.41697       -1.05699        1.08888
