31
1msa1dma1eda_16.log	Energy: -621184.0939385
S         -0.13365       -1.59394        0.04767
O         -1.51380       -1.42724        0.52146
O          0.89451       -1.18407        1.06837
O          0.15358       -0.94348       -1.25953
H          1.26848        1.55737       -0.28848
C          0.12059       -3.34541       -0.19128
H         -0.03949       -3.84393        0.76490
H         -0.60411       -3.69024       -0.92924
H          1.13886       -3.50580       -0.54589
H         -0.88330        1.12556        0.76293
H         -1.28083        2.83556        0.56896
H         -3.08805        2.26445       -1.00765
H         -2.50821        0.59858       -1.11497
H         -3.18366        0.17504        1.04064
H         -3.62296        1.73673        1.34464
H         -0.26865        1.10882       -1.57212
H         -0.44895        2.74776       -1.65671
C         -1.23356        1.87378        0.04301
C         -2.62895        1.44758       -0.43415
N         -0.23238        1.97742       -1.03202
N         -3.53619        1.03127        0.62074
N          2.06750        1.03969        0.18892
C          2.65378        1.87087        1.25161
C          3.01697        0.59506       -0.84876
H          1.61643        0.17119        0.60532
H          3.08597        2.77537        0.81829
H          1.86904        2.14216        1.95865
H          3.42955        1.30728        1.77336
H          3.43426        1.46327       -1.36357
H          3.81966        0.01892       -0.38440
H          2.46472       -0.03672       -1.54596
