23
1msa2ma_34.log	Energy: -537107.0508233
S          1.39656        0.11643       -0.00065
O          0.69571        0.17557       -1.28022
O          1.16438        1.15056        0.98553
O          2.98691        0.08679       -0.35575
H          3.09471        0.43171       -1.25385
C          1.21117       -1.47541        0.74296
H          0.13777       -1.56469        0.98501
H          1.51826       -2.22914        0.01833
H          1.83382       -1.50350        1.63739
N         -2.17393        1.29726       -0.53581
H         -1.30486        1.11986       -1.03359
C         -2.02272        2.43932        0.36666
H         -1.78119        3.38565       -0.13814
H         -2.94919        2.58074        0.93116
H         -1.22177        2.22331        1.07736
H         -2.88938        1.47846       -1.23129
N         -1.97568       -1.49781        0.71780
H         -2.64919       -1.81630        1.40606
C         -2.08753       -2.27782       -0.51287
H         -3.07649       -2.23351       -0.99223
H         -1.35295       -1.90455       -1.23393
H         -1.85453       -3.32938       -0.31464
H         -2.18427       -0.51755        0.50181
