28
1msa1ma1eda_183.log	Energy: -596506.3238720
S         -1.75400        0.29907       -0.11646
O         -1.88013       -1.00301       -0.74812
O         -1.70130        1.49084       -0.96693
O         -0.50691        0.32796        0.84137
H          0.19625        1.10190        0.51325
C         -3.09766        0.47826        1.03775
H         -4.02387        0.43720        0.46347
H         -3.05117       -0.34791        1.74714
H         -2.99825        1.43780        1.54420
H          2.01462        1.00784       -1.48217
H          2.88371        2.49014       -1.02993
H          4.13878        0.69397       -0.13206
H          3.31338        1.42730        1.24459
H          3.19107       -1.05940        1.12786
H          1.67596       -0.44370        1.02290
H          1.27364        2.82542        0.70749
H          0.43758        2.55101       -0.67985
C          2.30360        1.64481       -0.64201
C          3.15470        0.83324        0.32623
N          1.06274        2.12275        0.00286
N          2.58017       -0.48303        0.56145
N          0.81794       -2.70994       -0.96286
H          1.51569       -1.97200       -0.90654
C          0.56034       -3.21610        0.37935
H          0.19574       -2.45850        1.09393
H         -0.18964       -4.01149        0.33479
H          1.47646       -3.65756        0.78700
H         -0.03116       -2.28319       -1.32154
