31
1msa1dma1eda_24.log	Energy: -621182.8319190
S          1.83849       -0.48421       -0.07278
O          1.38184       -1.50689       -1.02620
O          1.17359       -0.53610        1.25168
O          1.77377        0.91095       -0.64091
H          0.39413        1.54915       -0.19773
C          3.57843       -0.77588        0.21155
H          3.68595       -1.77532        0.63402
H          4.09564       -0.70579       -0.74556
H          3.94694       -0.02223        0.90761
H         -2.57810       -1.79672       -1.72882
H         -0.95269       -1.08891       -1.58209
H         -1.28974       -2.80580        0.11765
H         -1.03760       -1.23621        0.85209
H         -3.61796       -2.61613        0.63128
H         -2.89357       -2.01904        1.96433
H         -2.88615        0.52346       -1.80023
H         -3.29702        0.07759       -0.27508
C         -1.93118       -1.16635       -1.10015
C         -1.75006       -1.82040        0.26250
N         -2.51322        0.17891       -0.92087
N         -3.03481       -1.85874        0.97375
N         -0.55986        1.94345        0.07331
C         -0.76410        3.22653       -0.61778
C         -0.65662        2.01893        1.54372
H         -1.28309        1.25043       -0.28397
H         -0.01245        3.94473       -0.28547
H         -0.65608        3.06761       -1.69144
H         -1.76256        3.61277       -0.39949
H          0.03562        2.77847        1.91233
H         -1.67932        2.27539        1.83020
H         -0.36496        1.04802        1.94588
