28
1msa1ma1eda_186.log	Energy: -596500.2409289
S          1.69801       -0.60925        0.05101
O          2.54295        0.35170       -0.63080
O          1.08912       -0.26992        1.32932
O          2.60540       -1.93457        0.30423
H          2.45268       -2.22974        1.21314
C          0.47752       -1.22204       -1.07389
H         -0.13268       -0.36854       -1.38361
H          0.99779       -1.66490       -1.92335
H         -0.16353       -1.93772       -0.55366
H         -4.22761       -0.63764        0.33567
H         -3.20907       -1.29438        1.62467
H         -2.72594        1.07878        1.24875
H         -1.31382        0.08135        0.89881
H         -3.05813        1.29208       -1.11875
H         -1.43482        1.50456       -0.90065
H         -3.26011       -2.75385       -0.31733
H         -2.57629       -1.56331       -1.21735
C         -3.19094       -0.91517        0.59708
C         -2.31811        0.33497        0.54553
N         -2.64270       -1.95023       -0.27900
N         -2.20250        0.83120       -0.82554
N          0.32708        2.62515       -0.68616
H          1.22041        2.16687       -0.84830
C          0.22465        3.04996        0.71240
H          0.98119        3.78607        1.01698
H         -0.76527        3.48303        0.88762
H          0.32517        2.17170        1.35446
H          0.29017        3.42682       -1.30706
