28
1msa1ma1eda_51.log	Energy: -596519.7193461
S          1.61643       -0.65213        0.06101
O          0.54077       -1.40823        0.74109
O          2.15788        0.46082        0.86920
O          1.19961       -0.18229       -1.30662
H          0.36736        1.19457       -1.11495
C          2.94600       -1.80600       -0.22991
H          3.27705       -2.18595        0.73690
H          2.56539       -2.61608       -0.85213
H          3.75511       -1.27776       -0.73461
H         -3.03046       -0.72669        1.66058
H         -3.51989        0.77243        0.85964
H         -2.23192        0.06743       -1.17925
H         -1.73825       -1.39938       -0.34074
H         -4.49925       -0.73256       -1.09853
H         -3.61804       -2.04837       -1.51713
H         -1.58070        1.16450        2.20302
H         -0.73683       -0.00457        1.41726
C         -2.72007        0.02350        0.92351
C         -2.55137       -0.67255       -0.42441
N         -1.47189        0.70350        1.30505
N         -3.77952       -1.37237       -0.78084
N         -0.17760        2.03310       -0.74835
H         -0.80518        2.37391       -1.47219
C          0.75240        3.08010       -0.27009
H          0.19152        3.87733        0.22016
H          1.44007        2.60228        0.42937
H          1.31463        3.48397       -1.11258
H         -0.75833        1.62662        0.06405
