29
1msa2dma_28.log	Energy: -586437.9050368
S         -1.70694        0.23985        0.11162
O         -0.91378        1.00951        1.09459
O         -2.37379       -0.95310        0.65129
O         -0.84818       -0.09803       -1.09424
H          0.29643       -0.88673       -0.59205
C         -2.96173        1.32966       -0.53293
H         -3.60813        1.61575        0.29722
H         -2.47275        2.20531       -0.95936
H         -3.52751        0.78972       -1.29218
N          1.08396       -1.54437       -0.19656
C          1.06638       -2.78665       -0.99455
C          0.84925       -1.75297        1.25272
H          1.96723       -1.04934       -0.32765
H          0.07759       -3.23631       -0.89717
H          1.24630       -2.53834       -2.04081
H          1.82958       -3.47944       -0.63429
H         -0.14266       -2.18926        1.37927
H          1.62131       -2.40960        1.65876
H          0.85918       -0.78128        1.74616
N          1.90548        1.75127        0.11887
C          2.96047        1.24212        0.95151
C          2.10036        1.56985       -1.29617
H          0.97235        1.50572        0.44184
H          3.89715        1.77805        0.75580
H          2.70687        1.38051        2.00542
H          3.18975        0.16021        0.79937
H          2.91819        2.20687       -1.65512
H          2.36440        0.52913       -1.59188
H          1.18727        1.83408       -1.83197
