29
1msa1ma1tma_13.log	Energy: -586440.0862572
S          1.82023       -0.39526       -0.00817
O          1.15742       -1.69974       -0.06878
O          1.50496        0.39120        1.23098
O          1.60119        0.45821       -1.22366
H          0.71055        1.84071       -0.78251
C          3.57735       -0.70592        0.05106
H          3.78271       -1.30245        0.94024
H          3.85090       -1.25459       -0.85050
H          4.10207        0.24840        0.09685
N          0.30797        2.41521        0.00381
H          0.64130        1.80919        0.79672
C         -1.16692        2.53184       -0.05826
H         -1.52304        3.06409        0.82465
H         -1.44619        3.08038       -0.95866
H         -1.59117        1.51690       -0.08336
H          0.77880        3.31582        0.04263
N         -2.44761       -0.45681       -0.00839
C         -2.01111       -1.08807        1.23063
H         -0.93295       -1.25870        1.19768
H         -2.24073       -0.43324        2.07823
H         -2.51399       -2.05883        1.39960
C         -3.87848       -0.21233        0.00267
H         -4.14356        0.42483        0.85339
H         -4.17748        0.29973       -0.91807
H         -4.46530       -1.14746        0.07996
C         -2.05774       -1.25137       -1.16673
H         -2.31542       -0.71470       -2.08593
H         -0.97963       -1.42541       -1.14758
H         -2.57024       -2.23156       -1.18516
