23
1msa2ma_24.log	Energy: -537114.5308121
S         -1.36758       -0.27558       -0.18622
O         -0.58691       -1.21929       -0.97620
O         -1.86303        0.92719       -0.85563
O         -0.56587        0.15672        1.09840
H         -0.11077        1.11260        0.91893
C         -2.72668       -1.15192        0.55102
H         -3.34343       -1.52844       -0.26571
H         -2.32095       -1.97703        1.13624
H         -3.29021       -0.46161        1.17749
N          0.50430        2.37529        0.44248
H         -0.22279        2.74627       -0.16672
C          1.70704        2.03469       -0.33546
H          2.12307        2.89178       -0.87357
H          2.46566        1.63410        0.33990
H          1.44942        1.25272       -1.05341
H          0.70637        3.07554        1.14922
N          2.21485       -1.60792        0.47941
H          1.43858       -1.66325       -0.17310
C          3.46362       -1.28286       -0.19161
H          3.46639       -0.33228       -0.75302
H          4.27445       -1.23920        0.54254
H          3.71205       -2.07925       -0.89895
H          1.96200       -0.91081        1.17021
