29
1msa2dma_23.log	Energy: -586436.4152484
S          1.77607        0.12568        0.10063
O          3.08379       -0.49844        0.22222
O          1.00074        0.33541        1.33068
O          0.87319       -0.66098       -0.91598
H          0.17651       -1.33327       -0.40145
C          1.94911        1.68446       -0.73641
H          2.60037        2.30281       -0.11729
H          2.40799        1.50114       -1.70799
H          0.95737        2.13423       -0.82955
N         -0.75549       -2.25159        0.19212
C         -1.61912       -2.79601       -0.86174
C         -1.50563       -1.62127        1.28795
H         -0.18153       -2.99916        0.57555
H         -2.16684       -1.97118       -1.32435
H         -1.00194       -3.27272       -1.62586
H         -2.34069       -3.52373       -0.47063
H         -2.09330       -0.79507        0.88004
H         -2.18606       -2.33068        1.77437
H         -0.79965       -1.21218        2.01161
N         -1.39620        1.88204       -0.09711
C         -1.98810        1.15121       -1.20032
C         -2.37233        2.59795        0.70267
H         -0.84248        1.26906        0.49552
H         -2.41063        1.85661       -1.92480
H         -1.21644        0.56339       -1.70483
H         -2.80698        0.46972       -0.89515
H         -2.84395        3.38003        0.09709
H         -3.17792        1.95072        1.09675
H         -1.87454        3.08028        1.54759
