25
1msa1a1eda_26.log	Energy: -571862.1394696
S          1.74168       -0.14317       -0.11371
O          1.59017       -1.51483       -0.60110
O          1.04419        0.11045        1.19227
O          1.35523        0.90941       -1.11046
H         -0.00143        1.80142       -0.53835
C          3.47966        0.11732        0.20567
H          3.80065       -0.61992        0.94187
H          4.01525       -0.02133       -0.73379
H          3.62101        1.12928        0.58547
H         -4.02574       -1.05575       -0.49717
H         -3.15986       -0.22438       -1.80070
H         -1.85559       -2.13966       -0.80801
H         -1.01032       -0.61487       -0.76221
H         -2.06783       -2.05777        1.50135
H         -0.73443       -1.10451        1.37005
H         -4.08040        1.35621       -0.22946
H         -3.25218        0.62748        0.99323
C         -3.15571       -0.42215       -0.72421
C         -1.86593       -1.14787       -0.33874
N         -3.22606        0.85882        0.00023
N         -1.71686       -1.18902        1.11597
N         -0.66371        2.01409        0.24870
H         -0.24285        1.42568        0.99527
H         -1.65025        1.67939        0.04913
H         -0.64143        2.99823        0.49649
