34
1msa1eda1tma_25.log	Energy: -645837.0067485
S          0.09913        1.56242       -0.15981
O          0.72416        1.03718       -1.38616
O          0.55496        0.92390        1.09204
O         -1.41091        1.54848       -0.25026
H         -1.95000        0.17209        0.01150
C          0.52133        3.29293       -0.05958
H          1.60682        3.36471        0.01539
H          0.16481        3.78512       -0.96434
H          0.04660        3.71428        0.82648
H          1.18427       -1.34707        0.62210
H          2.07948       -2.84605        0.34653
H          3.97024       -1.54148       -0.58101
H          2.96727       -0.09043       -0.63193
H          2.92773       -0.03719        1.70913
H          3.79979       -1.42086        1.84936
H          1.09877       -1.04764       -1.74843
H          1.80342       -2.50847       -2.00232
C          1.88091       -1.84529       -0.06013
C          3.16587       -1.00352       -0.06165
N          1.22038       -1.98291       -1.35826
N          3.63827       -0.60970        1.26057
N         -2.41642       -0.78979        0.20545
C         -1.86081       -1.29505        1.48221
H         -0.78166       -1.39457        1.37505
H         -2.06652       -0.56698        2.26701
H         -2.31837       -2.25885        1.71972
C         -3.86709       -0.52322        0.30176
H         -4.04181        0.19631        1.10248
H         -4.21014       -0.09836       -0.64214
H         -4.40012       -1.45474        0.50886
C         -2.08702       -1.68185       -0.93376
H         -2.41952       -1.20028       -1.85437
H         -1.00395       -1.84510       -0.98264
H         -2.60343       -2.63687       -0.80184
