25
1msa1a1eda_63.log	Energy: -571850.8205341
S          1.78522       -0.28987       -0.22237
O          3.22388       -0.39054       -0.38175
O          1.00991        0.37770       -1.27300
O          1.45106        0.42121        1.16163
H          1.00180        1.32276        0.98669
C          1.11171       -1.90630        0.05734
H          1.29232       -2.47944       -0.85335
H          1.64769       -2.34988        0.89702
H          0.04002       -1.81567        0.27188
H         -3.15218        0.34680        1.47719
H         -1.38431        0.47268        1.42638
H         -2.37332        1.56128       -0.53271
H         -1.40326        0.16226       -1.01828
H         -4.33289        0.26598       -0.93605
H         -3.35788       -0.14938       -2.18467
H         -2.17594       -1.80319        1.93353
H         -2.79615       -1.87525        0.41094
C         -2.24848        0.00031        0.94537
C         -2.32375        0.45971       -0.50723
N         -2.07678       -1.44826        0.98909
N         -3.45479       -0.18120       -1.17721
N          0.28528        2.69946        0.45356
H         -0.62020        2.96020        0.82938
H          0.16970        2.42524       -0.52096
H          0.88946        3.51428        0.48484
