28
1msa1ma1eda_150.log	Energy: -596507.1690789
S          0.70301        0.33265        0.29661
O          1.12655        1.03609       -0.90476
O          0.66128       -1.13295        0.26990
O         -0.71630        0.85178        0.74175
H         -1.41772        0.02197        0.79666
C          1.74307        0.85136        1.64063
H          2.76837        0.60074        1.34636
H          1.62865        1.92925        1.75822
H          1.43473        0.32335        2.54278
H         -4.38410        0.46610        0.51564
H         -4.92073       -0.10038       -1.06687
H         -4.00467       -2.01934       -0.06996
H         -2.74210       -1.44795       -1.18147
H         -2.77393       -1.17002        1.73770
H         -1.63506       -1.88507        0.79243
H         -3.73306        1.90158       -1.41945
H         -2.37869        1.34082       -0.68418
C         -4.02787        0.10655       -0.46766
C         -3.28900       -1.21211       -0.26523
N         -3.21008        1.06307       -1.19791
N         -2.30605       -1.11946        0.83645
N          4.14675        0.20252       -0.53000
H          3.43524        0.70708       -1.05270
C          4.10463       -1.21958       -0.87138
H          4.30895       -1.43925       -1.92971
H          4.83467       -1.76206       -0.26296
H          3.11342       -1.61329       -0.63120
H          5.04615        0.60441       -0.77019
