29
1msa1ma1tma_24.log	Energy: -586439.3530193
S         -2.04727       -0.27248       -0.00005
O         -3.49434       -0.08281        0.00153
O         -1.35149        0.25267        1.22587
O         -1.35373        0.25557       -1.22590
H         -0.48862        1.67740       -0.79078
C         -1.73855       -2.03187       -0.00217
H         -2.19536       -2.45292        0.89377
H         -2.19729       -2.45117       -0.89795
H         -0.66187       -2.20580       -0.00348
N         -0.18506        2.30026        0.00158
H         -0.78205        3.12475        0.00350
C          1.25784        2.62871        0.00055
H          1.49565        3.20877        0.89292
H          1.82480        1.68901       -0.00043
H          1.49397        3.21000       -0.89148
H         -0.48747        1.67439        0.79235
N          2.55407       -0.39250        0.00067
C          1.92346       -0.91931       -1.20137
H          0.85986       -0.66194       -1.21694
H          2.39217       -0.47890       -2.08711
H          2.02144       -2.01920       -1.27656
C          3.98408       -0.65059       -0.00101
H          4.44298       -0.20127       -0.88687
H          4.44405       -0.20642        0.88688
H          4.21593       -1.73253       -0.00433
C          1.92513       -0.92524        1.20097
H          2.39477       -0.48880        2.08817
H          0.86156       -0.66809        1.21888
H          2.02351       -2.02544        1.27076
