33
1msa2eda_63.log	Energy: -655915.4249533
S         -1.88969        0.22828        0.02484
O         -2.69651       -0.79158       -0.65665
O         -0.86348        0.87112       -0.83955
O         -1.27099       -0.28028        1.30001
H         -0.03602       -1.26111        1.27359
C         -2.98629        1.53535        0.54887
H         -2.39787        2.29126        1.06976
H         -3.45419        1.95443       -0.34238
H         -3.73789        1.10571        1.21130
H          2.11129        1.60745       -1.36123
H          3.15300        2.67409       -0.40492
H          2.29517        1.73000        1.68293
H          0.96648        0.96145        0.82708
H          2.71537       -0.37222       -0.32998
H          3.78966        0.14608        0.81933
H          1.27727        3.94782       -1.01588
H          0.23300        2.78239       -0.51909
C          2.16621        2.19490       -0.42769
C          2.02452        1.23005        0.74854
N          1.13385        3.21802       -0.32734
N          2.80697       -0.01022        0.62302
H          1.87925       -3.30132        0.19061
H          0.21202       -3.74222        0.63334
H          0.42882       -3.26657       -1.76747
H         -0.72676       -2.19412       -0.98802
H          1.33796       -1.38863       -2.53521
H          0.52527       -0.43462       -1.48465
H          0.92502       -2.24574        2.24447
H          1.68407       -1.20192        1.16782
C          0.85361       -2.93127        0.27850
C          0.34202       -2.42699       -1.07001
N          0.85326       -1.85495        1.30780
N          1.10614       -1.27444       -1.55615
