26
1msa1ma1dma_47.log	Energy: -561776.4207085
S         -0.15298       -1.29460       -0.10153
O          0.64758       -2.51174       -0.07402
O         -0.08080       -0.47137       -1.31306
O          0.18344       -0.38876        1.14456
H          1.01283        0.25445        0.92520
C         -1.84687       -1.69495        0.24214
H         -2.17211       -2.36984       -0.55103
H         -1.88339       -2.20037        1.20742
H         -2.43734       -0.77202        0.24279
N          2.16254        1.12124        0.54887
C          1.67054        2.19006       -0.32817
C          3.15014        0.25532       -0.11032
H          2.57447        1.52702        1.38458
H          1.14022        1.72693       -1.16390
H          0.96767        2.81675        0.22564
H          2.48567        2.81518       -0.71479
H          2.67337       -0.22545       -0.96791
H          4.02574        0.81889       -0.45656
H          3.46835       -0.52433        0.58437
N         -3.31987        1.32990        0.00628
H         -3.75761        1.40715       -0.90525
C         -2.05248        2.06082        0.03548
H         -2.14540        3.14223       -0.14538
H         -1.57666        1.90892        1.00851
H         -1.38289        1.63335       -0.71509
H         -3.97361        1.70415        0.68511
