34
1msa1eda1tma_38.log	Energy: -645835.9008822
S         -1.79276       -1.00686        0.07756
O         -0.63033       -1.48393        0.83542
O         -1.46739       -0.48611       -1.27810
O         -2.61206        0.01634        0.82886
H         -2.34879        1.37413        0.15463
C         -2.88798       -2.39613       -0.15151
H         -2.34701       -3.15819       -0.71317
H         -3.16823       -2.77220        0.83260
H         -3.76580       -2.05958       -0.70285
H         -0.61037        3.80099       -0.30318
H         -1.30057        3.26311        1.25932
H          1.07975        2.56957        0.96516
H          0.00909        1.17814        1.15063
H          1.72771        1.21553       -0.73233
H          0.24291        0.71456       -1.11622
H         -2.76985        2.83636       -0.65659
H         -1.63222        1.79712       -1.28320
C         -0.89889        2.93528        0.29759
C          0.28975        1.99591        0.47041
N         -1.99450        2.22186       -0.42079
N          0.76433        1.54390       -0.83066
N          3.09432       -0.28395       -0.06297
C          2.59993       -1.37857       -0.88735
H          1.52161       -1.48874       -0.74246
H          2.79532       -1.16458       -1.94289
H          3.08241       -2.34075       -0.63275
C          4.52583       -0.10449       -0.22253
H          4.75945        0.09348       -1.27306
H          4.86230        0.75133        0.37099
H          5.10075       -0.99458        0.09831
C          2.73286       -0.48935        1.33252
H          3.03151        0.38263        1.92428
H          1.65082       -0.62526        1.41507
H          3.22345       -1.38239        1.76340
