26
1msa1ma1dma_18.log	Energy: -561780.1594670
S          0.32939        0.72217       -0.18602
O          1.08276        0.41998       -1.40792
O         -0.00988       -0.49890        0.62512
O         -0.91870        1.52391       -0.42892
H         -2.24938        0.52674       -0.16743
C          1.37285        1.72442        0.85235
H          2.30987        1.17907        0.99853
H          1.55489        2.66336        0.32821
H          0.85671        1.90292        1.79572
N         -2.60008       -0.42893        0.11149
C         -2.93857       -1.19806       -1.10162
C         -3.65693       -0.35926        1.13349
H         -1.68772       -0.77697        0.50516
H         -3.80731       -0.74937       -1.58597
H         -2.08169       -1.16372       -1.77553
H         -3.15536       -2.23288       -0.83152
H         -4.54631        0.10873        0.70815
H         -3.90017       -1.36582        1.47819
H         -3.29353        0.23699        1.97059
N          3.72475       -0.50218       -0.04944
H          3.12774       -0.22266       -0.82500
C          3.28197       -1.79375        0.47243
H          3.35950       -2.62609       -0.24430
H          3.86894       -2.05267        1.35981
H          2.23441       -1.70842        0.77367
H          4.67713       -0.55624       -0.39267
