33
1msa2eda_90.log	Energy: -655912.8861128
S         -0.62856       -1.55737       -0.28492
O          0.37439       -2.63208       -0.37086
O         -0.61727       -0.61050       -1.41802
O         -0.52822       -0.83332        1.04388
H          0.93468       -0.51125        1.39604
C         -2.24951       -2.30018       -0.24739
H         -2.40397       -2.80933       -1.19905
H         -2.28455       -3.00898        0.57988
H         -2.98518       -1.50612       -0.11025
H          3.87426       -0.68505        0.81306
H          2.54387       -1.70918        0.16961
H          3.38766        0.12294       -1.45065
H          1.65247        0.10611       -1.14203
H          3.52088        2.13226       -0.29174
H          1.88313        2.21363       -0.58562
H          2.25155       -0.62230        2.48182
H          2.05192        0.78627        1.56092
C          2.83928       -0.69906        0.45965
C          2.62640        0.30254       -0.68378
N          1.96815       -0.24838        1.58069
N          2.63398        1.66464       -0.15123
H         -0.23479        1.57243        0.66391
H         -0.63565        3.29024        0.61042
H         -2.83756        2.77171       -0.36287
H         -2.32194        1.12711       -0.72819
H         -2.24692        0.67788        1.60354
H         -2.78182        2.18848        1.97313
H         -0.21851        1.55887       -1.71275
H         -0.46330        3.17964       -1.77998
C         -0.75141        2.33801        0.07664
C         -2.23264        1.93373        0.00665
N         -0.06714        2.43572       -1.21408
N         -2.79974        1.46223        1.26447
