31
1msa1dma1eda_38.log	Energy: -621182.7763355
S         -0.44191       -1.66416       -0.00836
O         -1.34068       -0.82178       -0.86517
O         -0.32910       -1.11604        1.36242
O          0.86666       -1.91600       -0.65406
C         -1.25626       -3.24706        0.12607
H         -0.63025       -3.89274        0.74238
H         -2.22897       -3.09455        0.59398
H         -1.36856       -3.66148       -0.87593
H         -0.74547        1.08888        1.22461
H         -0.05363        2.72322        1.12725
H         -2.58453        2.62225        1.43704
H         -2.03100        3.63807        0.10192
H         -2.83369        0.84501       -0.38270
H         -3.79960        2.16152       -0.64570
H          0.92325        1.30675       -0.52094
H         -0.61799        0.76582       -1.00832
C         -0.71528        2.00814        0.63218
C         -2.11038        2.59778        0.44375
N         -0.10884        1.61572       -0.66656
N         -2.84094        1.84681       -0.56628
H         -0.19170        2.35018       -1.36618
N          2.36658        0.56510       -0.15220
C          2.58556        0.60311        1.29422
C          3.53333        0.98116       -0.92204
H          2.09635       -0.39109       -0.40704
H          2.70734        1.64151        1.62396
H          1.71731        0.16104        1.78965
H          3.48339        0.04278        1.59312
H          3.74609        2.03895       -0.73117
H          4.43401        0.40306       -0.66799
H          3.33368        0.85591       -1.98950
