28
1msa1ma1eda_175.log	Energy: -596508.3781290
S          1.43342       -0.99759       -0.07919
O          1.26127       -0.49027        1.28607
O          2.76949       -1.37858       -0.50419
O          0.83388        0.07780       -1.07944
H          0.80805        1.01034       -0.60816
C          0.32455       -2.35584       -0.34913
H          0.69666       -3.18603        0.25327
H         -0.68396       -2.06222       -0.03460
H          0.36336       -2.61118       -1.40856
H         -2.82084        0.84527        1.58595
H         -1.16272        0.34902        1.19502
H         -2.02294        1.79122       -0.57432
H         -1.78024        0.15448       -1.19451
H         -4.37706        1.32573       -0.48769
H         -3.90493        0.70561       -1.92729
H         -2.55539       -1.53509        1.89416
H         -3.47595       -1.31622        0.54666
C         -2.21081        0.23176        0.89900
C         -2.39649        0.75551       -0.51975
N         -2.54817       -1.18786        0.94170
N         -3.79549        0.61799       -0.92424
N          0.92999        2.29676        0.26690
H          0.22265        3.01585        0.15541
C          2.28354        2.85077        0.11627
H          2.51074        3.63463        0.84664
H          3.00677        2.04099        0.23447
H          2.39455        3.25954       -0.89013
H          0.82047        1.88646        1.19236
