28
1msa1ma1eda_135.log	Energy: -596510.6956156
S         -0.69030       -1.25555        0.14649
O         -0.42879       -0.41048        1.31786
O         -0.15032       -2.61054        0.18059
O         -0.20637       -0.51850       -1.15500
H          0.87850       -0.49684       -1.19164
C         -2.43955       -1.29990       -0.13970
H         -2.87948       -1.80491        0.72153
H         -2.80944       -0.27124       -0.22314
H         -2.61839       -1.87026       -1.05114
H          3.90090        0.99499       -0.84754
H          2.46861        1.59885       -1.71272
H          2.62893        2.41194        0.67481
H          1.12905        1.55264        0.31433
H          3.03548        0.82142        2.24134
H          1.61663        0.06487        1.85391
H          2.77648       -0.82009       -1.97134
H          2.61783       -0.98300       -0.33893
C          2.80513        0.95480       -0.89400
C          2.21051        1.42782        0.43588
N          2.34080       -0.41947       -1.14629
N          2.48206        0.44680        1.48344
N         -3.18790        1.98576       -0.18360
H         -3.64503        2.41892       -0.97852
C         -1.78957        2.41027       -0.08714
H         -1.64836        3.49715        0.00564
H         -1.33036        1.91972        0.77487
H         -1.25128        2.06009       -0.97200
H         -3.70509        2.26130        0.64414
