20
1msa1a1ma_18.log	Energy: -512457.0242055
S          0.99115       -0.35006        0.07318
O          0.30333       -1.59797       -0.21245
O          0.72742        0.32517        1.34264
O          0.74679        0.67572       -1.10505
H          0.23753        1.50970       -0.75423
C          2.73943       -0.63888       -0.08163
H          3.01176       -1.36820        0.68193
H          2.93210       -1.03747       -1.07748
H          3.26403        0.30290        0.07549
N         -2.85240       -1.46339        0.05364
H         -1.91964       -1.86206       -0.00540
C         -2.75960       -0.01093        0.03900
H         -2.30450        0.41260       -0.87301
H         -3.75721        0.42595        0.15626
H         -2.15771        0.30873        0.89609
H         -3.37752       -1.79771       -0.74654
N         -0.53964        2.69419       -0.04808
H         -0.16304        3.63023       -0.15537
H         -0.45160        2.41833        0.92828
H         -1.52752        2.71781       -0.28116
