25
1msa1a1eda_05.log	Energy: -571868.1439490
S         -1.57073       -0.10284        0.05337
O         -0.77987       -0.46743        1.25330
O         -1.18704       -0.86555       -1.15612
O         -1.58143        1.37655       -0.18598
H         -0.06002        1.95002       -0.49930
C         -3.26714       -0.52643        0.41197
H         -3.57722        0.02697        1.29846
H         -3.87585       -0.25137       -0.44956
H         -3.31539       -1.60083        0.59087
H          1.14538       -1.65194        0.13109
H          2.66640       -2.15996       -0.60148
H          3.24317       -1.23878        1.45212
H          3.71707       -0.01100        0.27171
H          1.11216        0.12430        1.64365
H          2.47274        0.81816        2.26655
H          2.32225       -0.70208       -2.29120
H          0.74928       -0.75472       -1.78658
C          2.06931       -1.28215       -0.32380
C          2.85177       -0.50336        0.73432
N          1.70142       -0.49613       -1.51673
N          2.02894        0.51675        1.40560
N          0.98330        2.06183       -0.62794
H          1.24306        2.97801       -0.97575
H          1.30874        1.26837       -1.23782
H          1.44723        1.79625        0.28227
