34
1msa1eda1tma_17.log	Energy: -645840.2115460
S          0.40430        1.66840        0.13194
O          1.62615        1.62256        0.96203
O         -0.86538        1.62176        0.87582
O          0.46180        0.60554       -0.94388
H          1.31305       -0.59282       -0.42867
C          0.42571        3.21230       -0.76363
H          0.37136        4.02015       -0.03332
H          1.35301        3.27045       -1.33358
H         -0.43907        3.23334       -1.42718
H         -3.83085       -0.61969        1.29268
H         -4.77295       -1.17614       -0.09777
H         -3.01982       -2.79646        0.56824
H         -2.81412       -2.23005       -1.09445
H         -1.09150       -0.82633       -0.43522
H         -1.34952       -1.04799        1.13275
H         -4.22832        1.03265       -0.56032
H         -2.65326        0.85468       -0.17108
C         -3.78335       -0.81404        0.20573
C         -2.76011       -1.92387       -0.04411
N         -3.45724        0.37499       -0.57466
N         -1.37616       -1.53665        0.23874
N          1.98688       -1.37080       -0.12607
C          1.63949       -2.57777       -0.91040
H          0.59779       -2.82343       -0.69053
H          1.75283       -2.35213       -1.97166
H          2.30584       -3.39747       -0.62942
C          3.33986       -0.84913       -0.42535
H          3.41741       -0.66815       -1.49809
H          3.46020        0.09291        0.11189
H          4.09036       -1.57909       -0.11222
C          1.79905       -1.58891        1.33015
H          1.92040       -0.62807        1.83243
H          0.78958       -1.97099        1.48306
H          2.53993       -2.31290        1.67939
