25
1msa1a1eda_74.log	Energy: -571843.0132483
S         -1.70396       -0.26793       -0.05139
O         -1.08300       -0.47201       -1.35322
O         -0.93843       -0.54984        1.14922
O         -3.05134       -1.18138       -0.03134
H         -2.92287       -1.91258       -0.65321
C         -2.42903        1.33858        0.07371
H         -1.57671        2.02600        0.18393
H         -3.00586        1.52633       -0.83122
H         -3.06028        1.35270        0.96264
H          3.45751       -0.96715       -1.41007
H          3.96637        0.66759       -0.93213
H          4.08234       -0.90674        0.93500
H          2.94092        0.40913        1.26022
H          2.24563       -2.01206        1.73297
H          1.16103       -1.13061        0.90176
H          2.00340        0.90239       -2.18207
H          1.18035       -0.18991       -1.30897
C          3.17756       -0.08461       -0.81534
C          3.10789       -0.49463        0.65064
N          1.91323        0.51384       -1.24934
N          2.09589       -1.52723        0.85604
N          0.51017        2.47636        0.70413
H          0.60761        2.05869        1.62478
H          0.94046        3.39460        0.74079
H          1.05200        1.89752        0.05062
