33
1msa2eda_130.log	Energy: -655902.8743561
S          0.91867       -1.68896       -0.25583
O          2.17170       -2.38629       -0.51834
O          0.41989       -0.79596       -1.30527
O          1.01236       -0.89352        1.10215
H          1.64101       -0.03689        1.01555
C         -0.35365       -2.85052        0.16264
H         -0.54337       -3.43876       -0.73636
H          0.01767       -3.48800        0.96522
H         -1.24173       -2.28599        0.47189
H          3.15810        2.60770       -0.54013
H          2.64375        1.02623       -1.16964
H          0.96425        2.77492       -1.67350
H          0.32472        1.48473       -0.66022
H          0.96527        4.20385        0.21291
H         -0.36782        3.30569        0.51731
H          3.43964        0.99284        1.18137
H          2.11312        1.89856        1.57208
C          2.42082        1.80032       -0.43027
C          1.01230        2.33355       -0.66887
N          2.48316        1.20859        0.91742
N          0.63734        3.26260        0.40001
H         -2.65534        1.43856        1.37759
H         -1.11580        0.63690        1.00443
H         -2.03541        1.66952       -1.01506
H         -1.99433       -0.08728       -1.17717
H         -4.39210        1.52416       -0.65217
H         -4.13036        0.45583       -1.86319
H         -2.60679       -0.78613        2.31518
H         -3.65962       -0.80305        1.04831
C         -2.19764        0.58743        0.84040
C         -2.48684        0.73331       -0.64850
N         -2.68103       -0.70863        1.30709
N         -3.92878        0.65339       -0.89049
