28
1msa1ma1eda_131.log	Energy: -596512.3655984
S         -1.85990       -0.24039       -0.06983
O         -1.64826       -1.50306       -0.83249
O         -1.87091        0.97302       -0.89421
O         -0.87569       -0.16264        1.07501
C         -3.46239       -0.37523        0.70121
H         -4.20713       -0.45630       -0.09090
H         -3.47141       -1.26253        1.33405
H         -3.62810        0.52587        1.29205
H          2.06365       -1.31077       -1.71752
H          1.06374        0.03729       -1.12796
H          3.50768        0.38273       -0.58665
H          2.50338        0.28788        0.85842
H          4.28345       -1.81376       -0.12810
H          4.12994       -1.22164        1.38675
H          0.16347       -2.15991       -0.54892
H          1.55536       -2.38681        0.44825
C          1.71933       -0.78239       -0.82454
C          2.89223       -0.29463        0.01718
N          0.92105       -1.72217       -0.00229
N          3.61585       -1.45327        0.54543
H          0.34980       -1.15791        0.69658
N          0.34969        2.72562        0.44516
H          0.37111        1.86188        0.97820
C          1.60889        3.00258       -0.22208
H          1.92136        2.26249       -0.98230
H          1.55032        3.97135       -0.72746
H          2.41269        3.07688        0.51892
H         -0.40651        2.59770       -0.22130
