28
1msa1ma1eda_75.log	Energy: -596520.1650554
S          1.88243       -0.04042        0.07807
O          1.11858        0.01248        1.35264
O          3.13727        0.70867        0.07214
O          0.96026        0.33962       -1.06701
H         -0.05296        1.41602       -0.46188
C          2.26555       -1.75968       -0.21825
H          1.33289       -2.32672       -0.22178
H          2.77292       -1.83405       -1.18048
H          2.92191       -2.09578        0.58513
H         -2.73972       -0.19374       -1.16631
H         -3.34267       -1.85146       -1.14865
H         -3.78503       -0.74936        0.97273
H         -2.70413       -2.14540        1.17950
H         -2.02408       -0.11637        2.39289
H         -0.86081       -0.60320        1.36943
H         -1.27898       -2.20247       -1.97837
H         -0.54130       -1.02244       -1.12524
C         -2.56688       -1.19715       -0.73716
C         -2.77659       -1.12849        0.77150
N         -1.25900       -1.74583       -1.07468
N         -1.81147       -0.22065        1.40522
N         -0.74091        1.98720        0.12149
H         -1.29763        1.24300        0.65162
C         -1.58759        2.87568       -0.69141
H         -2.24954        3.45809       -0.04920
H         -0.96288        3.54550       -1.28280
H         -2.18771        2.26127       -1.36352
H         -0.17542        2.49057        0.80343
