34
1msa1eda1tma_47.log	Energy: -645834.5283371
S         -0.04914        0.94621        0.00335
O          0.59238        0.44671       -1.22813
O         -0.12733       -0.05662        1.09059
O         -1.42620        1.51642       -0.27632
H         -2.39772        0.40908       -0.14527
C          0.91500        2.32078        0.58943
H          1.93976        1.95875        0.71567
H          0.87952        3.10153       -0.17099
H          0.48184        2.67073        1.52649
H          4.77617       -1.08174       -0.77485
H          5.00773       -0.24782        0.77765
H          3.75770       -2.24805        1.15335
H          2.67847       -0.86345        1.42359
H          1.76513       -2.72915        0.07694
H          1.70028       -1.31432       -0.71139
H          4.34336        1.29427       -0.94777
H          2.90832        0.53504       -1.12795
C          4.26346       -0.51447        0.01786
C          3.22558       -1.43050        0.65313
N          3.65496        0.72838       -0.46299
N          2.34515       -2.01915       -0.35728
N         -3.07307       -0.44861       -0.04503
C         -3.25460       -0.67401        1.40739
H         -2.26446       -0.79417        1.84996
H         -3.73927        0.20208        1.84006
H         -3.87166       -1.56236        1.56689
C         -4.33455       -0.09990       -0.72814
H         -4.75235        0.79526       -0.26589
H         -4.12214        0.10474       -1.77808
H         -5.04455       -0.92722       -0.64584
C         -2.38505       -1.59292       -0.69125
H         -2.16972       -1.33310       -1.72834
H         -1.44379       -1.76189       -0.16680
H         -3.02536       -2.47783       -0.64353
