33
1msa2eda_33.log	Energy: -655915.6134007
S         -2.06816       -0.64446       -0.00502
O         -1.54972       -1.73761        0.84618
O         -1.27540       -0.43177       -1.23898
O         -2.23617        0.63915        0.75590
H         -0.71628        1.16292        1.11861
C         -3.71453       -1.11504       -0.50554
H         -3.64006       -2.05161       -1.05859
H         -4.31859       -1.24511        0.39238
H         -4.12039       -0.32462       -1.13688
H          1.80256       -2.29502       -0.96973
H          1.20392       -0.67043       -1.26716
H          3.61130       -0.77151       -1.75313
H          3.35453        0.26171       -0.33949
H          4.26641       -2.51961       -0.21361
H          5.07278       -1.18373        0.26966
H          0.46728       -1.62515        0.85656
H          2.04096       -1.57217        1.38527
C          1.85621       -1.25593       -0.61254
C          3.29696       -0.77301       -0.69879
N          1.36298       -1.13571        0.76385
N          4.14856       -1.58738        0.17106
H          1.66694        1.65220       -0.91634
H          1.57750        3.40349       -0.89985
H          1.91438        2.61125        1.35922
H          0.31942        3.37766        1.22954
H          0.81423        0.38221        1.16936
H          0.24191        1.31480        2.46330
H         -0.61131        1.47955       -1.36943
H         -0.89194        3.08289       -1.06518
C          1.03168        2.49338       -0.61923
C          0.91953        2.51946        0.91078
N         -0.19757        2.41143       -1.37062
N          0.28406        1.29312        1.44614
