29
1msa2dma_43.log	Energy: -586424.0341772
S          0.38005       -1.52923       -0.07358
O          0.16356       -0.65666       -1.21405
O          1.54045       -2.40572       -0.03923
O         -0.93127       -2.49717        0.04189
H         -0.61861       -3.41241        0.01032
C          0.24158       -0.58849        1.41511
H          1.08583        0.11562        1.40021
H         -0.70891       -0.04488        1.36102
H          0.29397       -1.27434        2.26035
N          2.37093        1.71950        0.54523
C          1.28118        2.51125       -0.00908
C          3.23689        1.15731       -0.48453
H          2.92037        2.28984        1.17868
H          0.63699        1.85647       -0.60523
H          0.67922        2.92956        0.80301
H          1.62158        3.33548       -0.65853
H          2.65570        0.46770       -1.10379
H          3.67611        1.92037       -1.14938
H          4.04638        0.59118       -0.01698
N         -2.28988        0.94522       -0.02700
C         -2.63270        2.35608       -0.07279
C         -3.45661        0.07624       -0.03905
H         -1.68267        0.70676       -0.80586
H         -3.16588        2.63270        0.84364
H         -1.71991        2.95620       -0.12364
H         -3.27516        2.62690       -0.92903
H         -4.02394        0.21646        0.88801
H         -4.13968        0.27001       -0.88430
H         -3.13359       -0.96698       -0.08564
