29
1msa1ma1tma_19.log	Energy: -586439.8261683
S         -0.52615        0.58455       -0.19400
O         -0.35006       -0.69266        0.54077
O         -1.04960        0.45312       -1.55673
O          0.78042        1.36830       -0.15241
H          1.87259        0.44848        0.00032
C         -1.67204        1.58119        0.73597
H         -2.63693        1.06185        0.75445
H         -1.27382        1.70884        1.74306
H         -1.76093        2.54482        0.23286
N         -4.47454       -0.32047        0.44456
H         -4.97599       -0.69405        1.24298
C         -3.69752       -1.36830       -0.22439
H         -4.29413       -2.22858       -0.56297
H         -3.18162       -0.93604       -1.08503
H         -2.91824       -1.72508        0.45380
H         -5.16585        0.07178       -0.18528
N          2.71028       -0.27635        0.08477
C          2.44832       -1.32307       -0.93024
H          1.48491       -1.78082       -0.70228
H          2.39265       -0.85089       -1.91195
H          3.25126       -2.06529       -0.90945
C          3.95733        0.46283       -0.18904
H          3.89025        0.91001       -1.18160
H          4.06966        1.25496        0.55240
H          4.81321       -0.21644       -0.14144
C          2.66599       -0.82826        1.45659
H          2.82657       -0.01650        2.16758
H          1.67194       -1.25048        1.61022
H          3.44409       -1.58808        1.57469
