26
1msa1ma1dma_08.log	Energy: -561785.9107758
S         -1.75585        0.22061        0.12086
O         -2.13817        0.60763        1.48147
O         -1.69897       -1.23909       -0.13247
O         -0.46179        0.86697       -0.32869
H          0.62587       -0.23682       -0.22213
C         -2.99258        0.88775       -0.98483
H         -3.94918        0.43215       -0.72705
H         -3.03363        1.96765       -0.84027
H         -2.71515        0.64390       -2.01046
N          1.36958       -0.99981       -0.07968
C          1.23424       -1.99368       -1.16106
C          1.17438       -1.56474        1.27179
H          2.28663       -0.50231       -0.12195
H          0.21633       -2.38547       -1.13046
H          1.40210       -1.49690       -2.11756
H          1.96609       -2.79334       -1.02510
H          0.17476       -1.99904        1.32161
H          1.93882       -2.31932        1.47083
H          1.24505       -0.75643        2.00097
N          3.54394        0.86550       -0.01058
H          4.04515        0.86694        0.87263
C          2.65636        2.03925       -0.09631
H          3.18182        2.99440        0.01682
H          2.14140        2.03113       -1.05914
H          1.88024        1.96765        0.66871
H          4.24975        0.90054       -0.73939
