26
1msa1ma1dma_54.log	Energy: -561775.8485899
S         -1.56254       -0.49297        0.06654
O         -2.99520       -0.40194       -0.16125
O         -1.03086        0.04211        1.32143
O         -0.77012        0.18394       -1.13213
H         -0.64591        1.20842       -0.93348
C         -1.03388       -2.17686       -0.12832
H         -1.51013       -2.74413        0.67251
H         -1.37627       -2.52965       -1.10122
H          0.05643       -2.20857       -0.05117
N          2.10346       -0.91733       -0.13559
C          3.29099       -0.87584       -0.96960
C          2.36856       -0.57528        1.25163
H          1.38982       -0.30496       -0.51840
H          3.99734       -1.64561       -0.64021
H          3.02385       -1.08830       -2.00827
H          3.81905        0.09495       -0.93593
H          3.00405       -1.34581        1.70183
H          2.88510        0.39486        1.37419
H          1.42557       -0.53761        1.80298
N         -0.35521        2.65280       -0.46924
H         -0.27069        3.32990       -1.22131
C          0.86590        2.60675        0.35178
H          1.11566        3.57152        0.80496
H          0.71659        1.86423        1.13797
H          1.70263        2.28170       -0.27218
H         -1.15026        2.93280        0.09954
