31
1msa1dma1eda_151.log	Energy: -621165.9039017
S         -0.17920       -1.56608        0.23929
O         -0.57659       -1.32424        1.61577
O          0.93871       -2.47766       -0.01955
O          0.15188       -0.19080       -0.47231
H          1.21417       -0.16158       -0.74376
C         -1.60823       -2.10059       -0.67172
H         -1.95666       -3.02171       -0.20289
H         -2.35720       -1.30472       -0.60145
H         -1.31372       -2.27945       -1.70577
H          2.79607        2.43210       -0.99769
H          3.77325        2.62835        0.45810
H          4.50161        0.57835       -0.42426
H          3.39150        0.12035        0.88481
H          2.80134        0.07922       -1.99222
H          2.80413       -1.18611       -0.94205
H          1.51161        3.08914        1.01937
H          1.01846        1.58550        0.57624
C          2.96460        2.03398        0.02037
C          3.45547        0.59505       -0.09758
N          1.81183        2.12898        0.90302
N          2.61444       -0.18827       -1.02919
N         -2.73693        1.00920       -0.32079
C         -2.88260        1.27337        1.10318
C         -3.51305        1.91419       -1.14913
H         -1.75424        1.05412       -0.57218
H         -3.91450        1.06473        1.40716
H         -2.22018        0.61256        1.66762
H         -2.65884        2.32017        1.37672
H         -4.58101        1.75025       -0.96720
H         -3.30327        2.98186       -0.95613
H         -3.31984        1.71038       -2.20633
