25
1msa1a1eda_52.log	Energy: -571850.9203527
S          1.09653        0.22609        0.21984
O          1.37422        1.20093       -0.82263
O          1.03933       -1.19248       -0.15517
O         -0.25026        0.58793        0.95277
H         -0.97380       -0.21277        0.81559
C          2.30001        0.42987        1.51126
H          2.06790       -0.26773        2.31570
H          3.26777        0.20581        1.05284
H          2.25295        1.46218        1.85846
H         -3.98347        0.27644        0.78778
H         -4.55135        0.21322       -0.88178
H         -3.60487       -1.90772       -0.53073
H         -2.36719       -1.01404       -1.44020
H         -2.34450       -1.59564        1.43706
H         -1.24136       -2.04100        0.30195
H         -3.37513        2.24349       -0.61353
H         -1.99722        1.48627       -0.14363
C         -3.64670        0.23772       -0.26510
C         -2.89707       -1.07170       -0.48611
N         -2.85031        1.38035       -0.68488
N         -1.89205       -1.30541        0.57397
N          4.08788       -0.51031       -1.10099
H          4.94168       -0.76147       -1.58620
H          3.66770        0.27991       -1.58192
H          3.43386       -1.28317       -1.18573
