26
1msa1ma1dma_16.log	Energy: -561783.8001979
S          1.53885       -0.07604       -0.04465
O          1.36946        0.97443       -1.06340
O          1.57154       -1.45734       -0.56555
O          0.50638        0.04519        1.05657
H         -0.68872       -0.79711        0.62524
C          3.10076        0.22646        0.76367
H          3.88212        0.16271        0.00599
H          3.07252        1.22370        1.20291
H          3.24543       -0.53307        1.53194
N         -1.50788       -1.46441        0.37705
C         -1.55726       -1.66676       -1.09295
C         -2.75795       -0.91221        0.94278
H         -1.26547       -2.34467        0.83001
H         -1.79308       -0.69981       -1.53860
H         -0.57049       -1.99630       -1.42038
H         -2.32694       -2.40386       -1.33198
H         -2.93486        0.04084        0.44068
H         -3.58409       -1.60406        0.76574
H         -2.62133       -0.75225        2.01283
N         -1.61201        1.68968       -0.83367
H         -0.63545        1.51065       -1.07729
C         -1.64480        2.51562        0.37535
H         -1.17358        3.50169        0.25883
H         -2.68158        2.67136        0.69500
H         -1.11182        1.98502        1.16881
H         -2.01851        2.19790       -1.61287
