23
1msa2ma_02.log	Energy: -537129.1753262
S          1.27738       -0.15362       -0.02695
O          1.18847       -1.53946       -0.50593
O          0.49986        0.10553        1.21586
O          0.92733        0.85943       -1.08461
H         -0.62856        1.18173       -0.97890
C          2.99033        0.16608        0.36171
H          3.29814       -0.54670        1.12713
H          3.57366        0.02685       -0.54863
H          3.08045        1.18899        0.72721
N         -2.17815       -1.01727        0.59454
H         -1.30651       -0.92706        1.12465
C         -2.10456       -2.19686       -0.28147
H         -2.09987       -3.14238        0.27285
H         -2.95486       -2.20025       -0.96999
H         -1.17604       -2.14350       -0.85458
H         -2.93799       -1.11014        1.26098
N         -1.63680        1.36576       -0.67746
H         -2.20077        1.62570       -1.48222
C         -1.63040        2.40858        0.37079
H         -2.63807        2.55193        0.76391
H         -0.96048        2.05923        1.15775
H         -1.25230        3.34438       -0.04180
H         -1.98768        0.43892       -0.25543
