33
1msa2eda_49.log	Energy: -655915.5076716
S          2.12329       -0.40095        0.09580
O          1.84706       -1.84807        0.20114
O          1.98259        0.35473        1.35078
O          1.30931        0.21900       -1.01984
C          3.81906       -0.23015       -0.44142
H          4.45752       -0.66752        0.32668
H          3.93702       -0.75787       -1.38785
H          4.03652        0.83157       -0.56033
H         -0.36016       -1.95196        0.72227
H         -1.29891       -0.61013        1.38382
H         -2.55056       -2.77059        1.60646
H         -3.41984       -1.63140        0.56967
H         -1.79488       -3.86901       -0.41123
H         -3.39176       -3.60194       -0.66049
H         -0.21251       -0.35493       -0.91138
H         -1.49002       -1.36432       -1.42723
C         -1.27861       -1.37071        0.60070
C         -2.51960       -2.25272        0.63848
N         -1.20151       -0.68756       -0.71444
N         -2.49875       -3.14525       -0.52033
H         -1.83108        0.15837       -0.72910
H         -2.49451        3.58146        0.54519
H         -2.58153        2.07965        1.48331
H         -0.29095        3.16172        1.46860
H         -0.27465        1.50040        0.93079
H          0.37382        3.78186       -0.62624
H          0.66888        2.17930       -0.89658
H         -3.59030        1.89496       -0.74979
H         -2.10891        2.21644       -1.39315
C         -2.15223        2.53688        0.58486
C         -0.62197        2.50197        0.65760
N         -2.59213        1.78595       -0.60218
N         -0.04296        2.86004       -0.63651
