20
1msa1a1ma_03.log	Energy: -512467.6258047
S          1.09135       -0.16563       -0.02412
O          0.71173       -1.45981       -0.60404
O          0.42575        0.13963        1.27062
O          0.90626        0.98635       -0.98165
H         -0.41536        1.69003       -0.60042
C          2.84724       -0.21902        0.29180
H          3.03632       -1.03447        0.99046
H          3.35521       -0.39963       -0.65569
H          3.15390        0.73505        0.72034
N         -2.44405       -0.30384        0.63545
H         -1.58381       -0.52782        1.14314
C         -2.64269       -1.27532       -0.45212
H         -2.84920       -2.28699       -0.08557
H         -3.47485       -0.95474       -1.08552
H         -1.72912       -1.31907       -1.04911
H         -3.21272       -0.34266        1.29747
N         -1.33749        2.06115       -0.17416
H         -1.84196        2.66077       -0.81993
H         -1.09194        2.57771        0.66678
H         -1.91449        1.18738        0.11738
