33
1msa2eda_25.log	Energy: -655918.2212924
S          2.35098       -0.11678        0.03811
O          2.10348       -1.45932        0.60874
O          1.85057        0.98986        0.88655
O          1.85269        0.00793       -1.37280
C          4.12385        0.06555       -0.07759
H          4.53901       -0.02429        0.92654
H          4.50552       -0.72505       -0.72388
H          4.34011        1.04706       -0.49964
H          0.10175        2.30266        0.17708
H         -0.48329        2.74135       -1.43583
H         -1.95925        3.65905        0.30628
H         -2.83012        2.52869       -0.73683
H         -1.70545        1.67248        1.83851
H         -3.26553        2.11226        1.62095
H          0.24359        0.46040       -1.28502
H         -0.79504        0.10435       -0.02877
C         -0.71358        2.16212       -0.53839
C         -2.05341        2.59761        0.03488
N         -0.69489        0.72611       -0.88531
N         -2.45020        1.73616        1.14942
H         -1.47215        0.43564       -1.48664
H         -3.42690       -2.38008        0.73099
H         -3.25901       -2.85598       -0.95996
H         -1.24568       -3.40053        0.30267
H         -0.89233       -2.23392       -0.97276
H         -1.27055       -1.46802        1.83852
H          0.16728       -1.54494        1.02937
H         -4.16809       -0.73455       -1.00040
H         -3.10726       -0.11284        0.08356
C         -2.90506       -2.14041       -0.21093
C         -1.40891       -2.36076       -0.01454
N         -3.20616       -0.78381       -0.68265
N         -0.84067       -1.38813        0.92212
