31
1msa1dma1eda_101.log	Energy: -621172.2382759
S         -0.10247       -1.23401       -0.17315
O          1.01671       -2.10812       -0.57144
O         -0.47372       -0.21487       -1.17579
O          0.17918       -0.59356        1.17636
H          1.55446       -0.13094        1.28222
C         -1.53701       -2.24945        0.11214
H         -2.36578       -1.59101        0.38573
H         -1.75534       -2.76949       -0.82145
H         -1.30086       -2.96118        0.90310
H          4.35040        0.14245        0.14715
H          3.04090       -0.99126       -0.33699
H          3.24629        0.97793       -1.91169
H          1.66125        0.84450       -1.15141
H          3.69980        2.84519       -0.55516
H          2.07253        3.00080       -0.64124
H          3.08193       -0.24485        2.08298
H          2.59616        1.24434        1.48076
C          3.27211        0.01861        0.00772
C          2.71559        1.06459       -0.95667
N          2.60346        0.22810        1.32123
N          2.82066        2.38981       -0.33744
N         -3.18378        0.70352        0.00040
C         -2.74223        1.40928        1.19028
C         -4.30332        1.34803       -0.65806
H         -2.39968        0.60589       -0.64082
H         -3.52099        1.35831        1.96087
H         -1.83852        0.93267        1.57960
H         -2.52363        2.47877        1.00927
H         -5.18675        1.30883       -0.00956
H         -4.11934        2.41073       -0.90375
H         -4.54398        0.81843       -1.58411
