29
1msa1ma1tma_09.log	Energy: -586444.0739142
S          1.71375        0.18976        0.09719
O          1.77467       -1.08712        0.84325
O          1.50514        1.38522        0.92610
O          0.70210        0.09403       -1.02543
C          3.28363        0.38748       -0.73119
H          4.05655        0.45094        0.03539
H          3.44945       -0.47671       -1.37448
H          3.24872        1.30666       -1.31638
N         -2.62941        2.15523        0.34952
H         -3.49403        2.56648        0.01153
C         -1.49487        2.58107       -0.48353
H         -1.41456        3.66997       -0.60424
H         -0.56514        2.21041       -0.04652
H         -1.58482        2.13003       -1.47631
H         -2.50599        2.49832        1.29723
N         -1.28499       -1.32715       -0.09975
C         -2.52908       -1.06439       -0.85570
H         -2.83942       -0.03785       -0.64534
H         -2.33020       -1.19664       -1.92022
H         -3.30261       -1.76638       -0.53231
C         -0.76846       -2.70101       -0.29786
H         -0.63171       -2.87195       -1.36646
H          0.19665       -2.76847        0.20715
H         -1.48294       -3.42074        0.11035
C         -1.44399       -1.00458        1.34105
H         -0.47204       -1.11721        1.82289
H         -1.79234        0.02626        1.41838
H         -2.17882       -1.68685        1.77741
H         -0.51455       -0.67740       -0.48944
