26
1msa1a1tma_04.log	Energy: -561788.3171397
S          1.75247       -0.13152       -0.00009
O          1.18071       -1.48792       -0.00097
O          1.41615        0.65089        1.23080
O          1.41750        0.65197       -1.23065
H          0.05067        1.76583       -0.80087
C          3.52827       -0.31078        0.00079
H          3.80964       -0.86394        0.89719
H          3.81067       -0.86261       -0.89611
H          3.97845        0.68181        0.00182
N         -0.58085        1.97955       -0.00073
H         -0.92007        2.93541       -0.00106
H          0.04968        1.76602        0.80019
H         -1.37038        1.23185       -0.00109
N         -2.34746       -0.11167       -0.00008
C         -1.98926       -0.86686        1.20627
H         -0.92459       -1.11153        1.17938
H         -2.19604       -0.26035        2.09324
H         -2.56793       -1.80128        1.27728
C         -3.76313        0.24409       -0.00019
H         -3.99739        0.83803        0.88851
H         -3.99767        0.83615       -0.89007
H         -4.40895       -0.64893        0.00085
C         -1.98962       -0.86902       -1.20520
H         -2.19636       -0.26399       -2.09318
H         -0.92501       -1.11393       -1.17800
H         -2.56856       -1.80340       -1.27449
