31
1msa1dma1eda_27.log	Energy: -621182.6890144
S         -1.76486       -0.68557       -0.10083
O         -0.44942       -0.77221       -0.79646
O         -2.93289       -0.74958       -0.97800
O         -1.77336        0.50021        0.83031
H         -0.64841        1.50974        0.43565
C         -1.83544       -2.10696        0.98391
H         -1.83505       -3.00368        0.36243
H         -0.96442       -2.08978        1.64084
H         -2.75820       -2.04910        1.56178
H          1.83750       -0.11135       -1.23417
H          3.54588        0.30068       -1.00918
H          3.15703       -2.14182       -1.33112
H          3.89638       -1.80973        0.24549
H          0.99751       -2.14877       -0.11980
H          2.01608       -3.27121        0.55250
H          1.80829       -0.18636        1.25900
H          3.16674        0.71324        1.23171
C          2.68743       -0.19896       -0.55013
C          2.97876       -1.68636       -0.34419
N          2.32970        0.49327        0.69978
N          1.86932       -2.28194        0.39372
N          0.14022        2.16678        0.13189
C          0.09751        3.39601        0.93965
C          0.01671        2.38842       -1.32244
H          1.02970        1.63374        0.33912
H         -0.86694        3.88772        0.80090
H          0.21770        3.13303        1.99126
H          0.90120        4.07065        0.63586
H         -0.91065        2.92710       -1.52634
H          0.87098        2.96659       -1.68212
H         -0.02267        1.41138       -1.80587
