23
1msa2ma_04.log	Energy: -537128.9348276
S          1.29140       -0.11535       -0.05204
O          1.14256        0.95828       -1.05595
O          0.79393       -1.43218       -0.50648
O          0.69419        0.28858        1.27054
C          3.03541       -0.31282        0.27079
H          3.51689       -0.60511       -0.66264
H          3.42955        0.63897        0.62722
H          3.15674       -1.08908        1.02647
N         -1.66313        1.31936        0.59942
H         -2.30944        1.49170        1.36508
H         -0.71756        1.02118        0.99034
C         -1.52149        2.49245       -0.29184
H         -0.74163        2.25407       -1.01672
H         -2.47113        2.69226       -0.79041
H         -1.21541        3.36203        0.29065
H         -1.97980        0.44795        0.04901
N         -2.10353       -1.07734       -0.67754
H         -2.73545       -1.23503       -1.45583
C         -2.33940       -2.05309        0.39530
H         -2.26927       -3.09263        0.05615
H         -1.57922       -1.90337        1.16607
H         -3.32836       -1.89482        0.83669
H         -1.14420       -1.21336       -1.01307
