32
1msa1dma1tma_21.log	Energy: -611097.4648921
S         -0.46380        0.60298       -0.02758
O         -0.28619       -0.46639       -1.01127
O         -0.47464        0.20479        1.37902
O         -1.76866        1.41712       -0.36139
H         -2.64090        0.79454       -0.24871
C          0.77561        1.84432       -0.28126
H          1.74175        1.35158       -0.10618
H          0.69644        2.20131       -1.30815
H          0.60266        2.65033        0.43164
N         -3.78570       -0.12831       -0.07970
C         -3.76769       -0.62030        1.30487
C         -3.63509       -1.20243       -1.07121
H         -4.65625        0.36761       -0.24968
H         -2.78372       -1.04649        1.51397
H         -3.91962        0.21753        1.98802
H         -4.53970       -1.38040        1.47927
H         -2.64278       -1.64649       -0.96058
H         -4.39933       -1.98087       -0.95187
H         -3.70257       -0.77690       -2.07434
N          3.32982       -0.23697        0.05465
C          2.82111       -1.10746        1.10394
H          2.89223       -0.60197        2.07133
H          1.76820       -1.33438        0.92070
H          3.38298       -2.05936        1.16431
C          3.16840       -0.84884       -1.25540
H          2.11007       -1.05865       -1.43317
H          3.51867       -0.15851       -2.02960
H          3.73942       -1.79234       -1.35017
C          4.71105        0.13415        0.30038
H          5.05265        0.83129       -0.47110
H          4.79611        0.63053        1.27186
H          5.39114       -0.73991        0.30023
