29
1msa2dma_14.log	Energy: -586438.6214775
S          0.07977       -1.40259        0.18123
O         -0.98599       -1.20575        1.16335
O          1.46228       -1.42188        0.76672
O          0.03454       -0.42294       -0.96058
H          1.30326        0.77132       -0.70159
C         -0.15437       -3.00993       -0.55568
H          0.62650       -3.17290       -1.29828
H         -0.09535       -3.75386        0.23903
H         -1.14025       -3.02501       -1.02088
N          2.14068        0.97759       -0.10806
C          1.78976        1.97737        0.92162
C          3.32583        1.29980       -0.92109
H          2.21195        0.02990        0.35034
H          1.58801        2.93772        0.44481
H          0.89808        1.62873        1.44369
H          2.61699        2.07476        1.62633
H          3.16831        2.24906       -1.43568
H          4.20104        1.37330       -0.27359
H          3.47539        0.50548       -1.65249
N         -2.45215        1.40881       -0.72200
C         -3.62414        0.67514       -0.26761
C         -1.88058        2.21839        0.33720
H         -1.74639        0.73915       -1.01881
H         -4.42397        1.38169       -0.01560
H         -3.98927        0.03449       -1.07556
H         -3.42512        0.04451        0.61495
H         -2.59727        2.98975        0.64322
H         -1.60543        1.63527        1.23560
H         -0.98816        2.73316       -0.03729
