29
1msa2dma_06.log	Energy: -586445.1641630
S          2.16665       -0.25251       -0.11568
O          2.10574        1.07353        0.54495
O          2.74071       -0.25798       -1.46361
O          0.80453       -0.91309       -0.05476
H         -0.21991        0.25913        0.01910
C          3.20885       -1.28786        0.90407
H          4.20005       -0.83433        0.93276
H          2.77969       -1.33890        1.90480
H          3.25531       -2.27813        0.45043
N         -0.92016        1.07284        0.02594
C         -0.53309        2.01002       -1.04790
C         -0.91441        1.67652        1.37159
H         -1.84502        0.62860       -0.18387
H          0.47245        2.37703       -0.83634
H         -0.52016        1.46914       -1.99495
H         -1.24860        2.83422       -1.09458
H          0.10836        1.98198        1.59809
H         -1.59481        2.53087        1.39940
H         -1.23559        0.92426        2.09370
N         -3.14861       -0.63050       -0.48416
C         -4.45510       -0.38725        0.12214
C         -2.47728       -1.81293        0.06549
H         -3.26277       -0.75404       -1.48568
H         -4.31998       -0.16258        1.18488
H         -4.92848        0.47699       -0.35049
H         -5.13433       -1.24932        0.04325
H         -2.29659       -1.65384        1.13342
H         -3.07213       -2.73064       -0.04690
H         -1.50428       -1.94737       -0.41357
