23
1msa2ma_01.log	Energy: -537130.2939422
S          1.29245       -0.07413       -0.00849
O          1.02770       -1.31092       -0.77558
O          0.55337       -0.00268        1.27302
O          1.07177        1.16544       -0.83056
H         -0.52447        1.44807       -0.83087
C          3.03413       -0.07146        0.37899
H          3.24449       -0.95554        0.98128
H          3.59019       -0.10272       -0.55809
H          3.26035        0.83894        0.93402
N         -1.93547       -1.30912       -0.69092
H         -2.52084       -1.79382       -1.36404
C         -2.23320       -1.75946        0.67727
H         -2.16349       -2.84707        0.79539
H         -1.50754       -1.29652        1.35035
H         -3.24130       -1.44258        0.96214
H         -0.95832       -1.53805       -0.90611
N         -1.57868        1.42400       -0.68341
H         -2.04151        1.93906       -1.42791
C         -1.91142        1.95160        0.65868
H         -2.97121        1.79419        0.86445
H         -1.29474        1.40751        1.37573
H         -1.67553        3.01516        0.70802
H         -1.83595        0.37654       -0.75289
