28
1msa1ma1eda_161.log	Energy: -596509.1882268
S          0.62687       -0.57524       -0.31202
O         -0.20056       -0.59048       -1.51188
O          0.75846        0.69442        0.40869
O          2.07363       -1.10279       -0.65328
H          2.77589       -0.32014       -0.55532
C          0.02747       -1.82351        0.79406
H         -1.02914       -1.58694        0.97669
H          0.12297       -2.78775        0.29369
H          0.62349       -1.79428        1.70609
H         -4.68431        0.50123        0.43106
H         -3.74937        0.34215        1.93620
H         -3.17319        2.37269        0.67456
H         -1.77148        1.30701        0.85954
H         -2.45370        2.32399       -1.45717
H         -1.85734        0.81072       -1.39242
H         -3.81092       -1.73610        0.72349
H         -3.09013       -1.04166       -0.56089
C         -3.68159        0.30810        0.84232
C         -2.74693        1.41287        0.36260
N         -3.15967       -1.00566        0.45404
N         -2.63562        1.39538       -1.09723
N          3.70149        0.86590       -0.29368
H          4.54195        0.89394       -0.86264
C          4.02205        0.89860        1.14132
H          4.60232        1.78082        1.43155
H          3.08201        0.89106        1.69603
H          4.58733        0.00084        1.40097
H          3.13189        1.67133       -0.54098
