29
1msa1ma1tma_28.log	Energy: -586434.1984231
S          1.76056       -0.51565        0.08601
O          1.12310       -1.81400       -0.07684
O          1.47496        0.24556        1.30091
O          1.48729        0.39363       -1.16892
H          0.73718        1.12806       -0.98823
C          3.51997       -0.74256       -0.05968
H          3.82308       -1.40581        0.75116
H          3.72698       -1.20160       -1.02613
H          4.00705        0.22775        0.02978
N         -0.29900        2.20071       -0.76534
H         -0.37639        2.80119       -1.58155
C          0.01933        2.98654        0.43976
H         -0.74461        3.73625        0.66876
H          0.13072        2.29791        1.27863
H          0.97863        3.48593        0.29079
H         -1.19931        1.73840       -0.65590
N         -2.84938       -1.02160        0.16894
C         -2.13847       -1.27886       -1.06844
H         -1.36273       -2.03034       -0.90901
H         -2.83750       -1.63961       -1.82930
H         -1.63779       -0.37294       -1.46969
C         -3.87287       -0.01696       -0.00601
H         -4.58050       -0.32794       -0.78031
H         -4.42386        0.12624        0.92816
H         -3.45507        0.97072       -0.30640
C         -1.94497       -0.67824        1.24921
H         -2.49983       -0.59553        2.18869
H         -1.17753       -1.44691        1.35783
H         -1.41953        0.28399        1.08119
