25
1msa1a1eda_20.log	Energy: -571863.4983897
S         -1.67647       -0.14264       -0.02570
O         -1.21328       -1.49419       -0.37654
O         -1.51164        0.85799       -1.12545
O         -1.08520        0.37667        1.24876
H          0.05410        1.74912        0.87074
C         -3.43354       -0.26764        0.26222
H         -3.89801       -0.62784       -0.65600
H         -3.59167       -0.97671        1.07510
H         -3.81567        0.71812        0.52745
H          4.14119       -0.56421        0.30343
H          3.32049        0.48909        1.46879
H          2.36562       -1.82851        1.42014
H          1.16350       -0.60547        1.03094
H          2.25999       -2.55667       -0.78411
H          0.77520       -1.83180       -0.74184
H          3.64302        1.41872       -0.85107
H          2.52977        0.30168       -1.32848
C          3.19299       -0.05428        0.52588
C          2.07287       -1.09074        0.66102
N          2.83236        0.88950       -0.54563
N          1.77768       -1.67780       -0.64238
N          0.47730        2.23662        0.05543
H          0.52285        3.24155        0.18832
H         -0.20606        1.96566       -0.68860
H          1.43489        1.80360       -0.16439
