33
1msa2eda_139.log	Energy: -655906.1144008
S          2.37743       -0.60703        0.02532
O          3.72923       -0.80697       -0.48993
O          1.28348       -0.82663       -0.95696
O          2.18988        0.73413        0.70570
H          1.46496        1.69976       -0.13329
C          2.11971       -1.79483        1.33661
H          2.22806       -2.79135        0.90662
H          2.87674       -1.62755        2.10309
H          1.11782       -1.65305        1.74524
H         -0.99877        2.36602       -1.74798
H         -0.29586        0.75825       -1.37315
H         -2.22258        1.32287        0.17700
H         -0.69197        1.09434        1.01563
H         -2.05133        3.63355        0.55707
H         -1.26726        3.10695        1.88692
H          1.36319        2.59694       -1.59620
H          0.68468        3.24158       -0.20028
C         -0.47291        1.76708       -0.99804
C         -1.22642        1.75382        0.32559
N          0.85470        2.38540       -0.74141
N         -1.23790        3.11738        0.87465
H         -4.01061       -2.52175        0.19085
H         -4.56812       -1.39916       -1.05819
H         -2.40166       -2.34859       -1.67750
H         -2.26350       -0.60794       -1.41177
H         -1.37392       -2.67951        0.44802
H         -0.47745       -1.50632       -0.26256
H         -4.79687       -0.44671        1.16647
H         -3.16870       -0.54263        1.36299
C         -3.81696       -1.53856       -0.27293
C         -2.42983       -1.56494       -0.90500
N         -3.90976       -0.43061        0.67547
N         -1.39962       -1.71830        0.12101
