34
1msa1eda1tma_50.log	Energy: -645833.9131958
S         -0.34244        1.20899        0.07567
O         -0.09231        0.25025        1.17632
O         -1.43749        2.16237        0.34719
O         -0.59384        0.48570       -1.23293
H         -2.10966        0.28853       -1.25470
C          1.16406        2.11895       -0.17745
H          1.37129        2.66605        0.74334
H          1.96145        1.39801       -0.39020
H          1.00946        2.80893       -1.00727
H         -4.43504       -1.54848       -0.69797
H         -3.04455       -1.87669       -1.76926
H         -2.78678       -2.87117        0.57094
H         -1.48750       -1.75857        0.11929
H         -3.32317       -1.40122        2.24717
H         -1.99346       -0.49618        1.82824
H         -3.76885        0.52242       -1.69364
H         -3.28815        0.52275       -0.08867
C         -3.36731       -1.37338       -0.85533
C         -2.55210       -1.82148        0.36497
N         -3.15134        0.08570       -1.01497
N         -2.84519       -0.93856        1.48666
N          3.24723       -0.50352       -0.15728
C          3.29421       -0.47273        1.29510
H          3.94161        0.34628        1.62552
H          2.28757       -0.30252        1.68732
H          3.68875       -1.41531        1.72307
C          2.33514       -1.53130       -0.63129
H          1.34852       -1.37143       -0.19026
H          2.23696       -1.46580       -1.71901
H          2.68379       -2.55044       -0.37032
C          4.56821       -0.66035       -0.73338
H          4.50317       -0.62461       -1.82530
H          5.21971        0.15456       -0.40252
H          5.04484       -1.61912       -0.44766
