31
1msa1dma1eda_158.log	Energy: -621166.5588045
S          1.99905       -0.43535       -0.03849
O          1.46934       -1.48714       -0.88762
O          1.65339       -0.43581        1.38533
O          1.63403        0.97738       -0.62874
H          0.98252        1.51516        0.07851
C          3.77318       -0.44046       -0.19541
H          4.12601       -1.40231        0.17847
H          4.02165       -0.32493       -1.25025
H          4.18105        0.37797        0.39697
H         -1.64424        3.08126       -0.69342
H         -2.94110        1.90777       -0.45301
H         -1.93066        2.07682        1.65286
H         -1.30732        0.55678        0.98506
H          0.15648        3.10496        1.07938
H          0.48541        1.71485        1.90105
H         -1.77279        1.33414       -2.44126
H         -0.35421        1.12854       -1.63815
C         -1.85243        2.01309       -0.50169
C         -1.29840        1.64391        0.86949
N         -1.36533        1.11493       -1.54011
N          0.10285        2.09044        1.03442
N         -2.54931       -1.59655       -0.39851
C         -1.69080       -2.30502        0.53078
C         -3.72673       -1.03566        0.22477
H         -2.02931       -0.86838       -0.88508
H         -2.19350       -3.21330        0.88485
H         -0.76441       -2.59219        0.02939
H         -1.41654       -1.71229        1.42630
H         -4.38053       -1.83837        0.58664
H         -3.50988       -0.38107        1.09519
H         -4.29385       -0.45221       -0.50758
