29
1msa2dma_19.log	Energy: -586438.4424754
S          0.77152        1.27623       -0.04878
O          0.22262        0.45084       -1.15693
O          2.05564        1.91729       -0.33944
O          0.82227        0.43367        1.21825
H          1.29194       -0.89143        0.85630
C         -0.42528        2.54538        0.31114
H         -1.39487        2.06988        0.47601
H         -0.08572        3.08802        1.19355
H         -0.46447        3.20853       -0.55384
N         -2.65518       -0.03122       -0.08369
C         -3.77146       -0.51454       -0.87110
C         -2.45312       -0.77528        1.14292
H         -1.80018       -0.01906       -0.63526
H         -4.70901       -0.35167       -0.32686
H         -3.82939        0.04072       -1.81097
H         -3.70949       -1.59360       -1.10871
H         -3.28548       -0.59273        1.83287
H         -2.39473       -1.87189        0.98884
H         -1.52927       -0.43934        1.62269
N          1.66094       -1.86236        0.46414
C          2.77142       -1.56293       -0.47312
C          0.52427       -2.56543       -0.17395
H          2.01075       -2.40125        1.25420
H          2.36538       -0.96060       -1.28678
H          3.52647       -0.97862        0.05276
H          3.19734       -2.49266       -0.85587
H          0.11026       -1.88868       -0.92331
H          0.86825       -3.49496       -0.63243
H         -0.23173       -2.77294        0.58369
