31
1msa1dma1eda_163.log	Energy: -621165.7265286
S         -0.68356        1.67007        0.12852
O         -0.28702        3.04914       -0.08078
O         -0.74723        1.14794        1.49706
O          0.25714        0.71086       -0.70644
H          0.70303       -0.02351       -0.05785
C         -2.25837        1.40790       -0.65706
H         -2.97388        2.05794       -0.15142
H         -2.15992        1.69607       -1.70407
H         -2.54696        0.35635       -0.56129
H          3.02282       -1.80730       -0.95481
H          4.50839       -1.23872       -0.18796
H          3.10989       -1.81588        1.61637
H          3.02725       -0.04417        1.52198
H          0.97674       -1.94110        0.61847
H          0.83185       -0.74998        1.73578
H          3.92204        0.33178       -1.85341
H          2.45240        0.62322       -1.18644
C          3.45512       -0.98788       -0.35092
C          2.76390       -0.97186        1.00779
N          3.40091        0.32061       -0.98508
N          1.29340       -1.00616        0.86437
N         -2.62905       -1.99544       -0.38126
C         -2.19541       -2.03246        1.00694
C         -1.55372       -2.25039       -1.32645
H         -3.37905       -2.66120       -0.52607
H         -1.56654       -1.16163        1.22098
H         -3.06404       -1.96792        1.66686
H         -1.63254       -2.94888        1.26480
H         -0.84141       -1.41930       -1.30467
H         -1.00249       -3.18669       -1.12069
H         -1.95977       -2.30872       -2.33959
