23
1msa2ma_07.log	Energy: -537124.7421224
S         -1.51883        0.09043       -0.00105
O         -2.64600        1.02056       -0.00596
O         -0.65960        0.16571        1.22833
O         -0.65659        0.15648       -1.22875
C         -2.20198       -1.56212        0.00469
H         -2.81116       -1.67678       -0.89226
H         -1.38577       -2.28536        0.00979
H         -2.81530       -1.66881        0.89979
N          1.51361        1.14187        0.00049
H          0.86152        0.92254        0.78913
H          2.26392        0.41203        0.00112
C          1.99985        2.53044        0.00253
H          2.60529        2.70956       -0.88648
H          1.14510        3.20721        0.00069
H          2.60026        2.70835        0.89518
H          0.86526        0.92348       -0.79092
N          3.01536       -1.27739       -0.00481
H          3.57271       -1.49531       -0.82500
C          1.78079       -2.08336        0.00475
H          1.96471       -3.16391       -0.00770
H          1.19625       -1.82893        0.89280
H          1.17148       -1.81253       -0.86167
H          3.58973       -1.50150        0.80182
