31
1msa1dma1eda_90.log	Energy: -621175.0280124
S         -1.28849       -1.08303       -0.16244
O         -0.22357       -1.03958       -1.18975
O         -2.52664       -0.37512       -0.54505
O         -0.78920       -0.59773        1.17608
H         -1.15937        0.96037        1.17412
C         -1.69245       -2.80193        0.08552
H         -2.46119       -2.86622        0.85541
H         -2.05961       -3.19954       -0.86100
H         -0.78686       -3.32295        0.39694
H         -0.67638        3.87674        0.60542
H          0.19206        2.89392        1.81555
H          1.41160        3.15722       -0.43868
H          1.19867        1.49113        0.08568
H          0.11779        2.66000       -2.25175
H         -0.04179        1.09710       -1.72399
H         -2.21207        2.27098        1.46657
H         -1.78375        1.82320       -0.08869
C         -0.28984        2.87999        0.83572
C          0.65937        2.38122       -0.26260
N         -1.44541        1.94958        0.88159
N         -0.11734        2.07761       -1.46058
N          2.48326       -0.43715        0.08603
C          2.56468       -1.12801        1.36129
C          3.65812       -0.63801       -0.74163
H          1.65186       -0.75439       -0.41017
H          3.35475       -0.68189        1.97781
H          1.60989       -1.02447        1.88272
H          2.79105       -2.20562        1.25965
H          4.53321       -0.18264       -0.26261
H          3.89325       -1.70285       -0.92202
H          3.51508       -0.15190       -1.71123
