20
1msa1a1ma_24.log	Energy: -512449.0257828
S         -0.59116        0.60695       -0.07938
O         -0.22235       -0.23203       -1.20517
O         -1.87848        1.28909       -0.08002
O          0.54173        1.77505        0.05007
H          0.09162        2.62651       -0.04518
C         -0.32976       -0.27765        1.42998
H         -1.07969       -1.07465        1.41698
H          0.69020       -0.67791        1.39520
H         -0.48731        0.41096        2.25972
N          2.47725       -1.30868        0.07018
H          2.92058       -2.22046        0.08505
C          3.47074       -0.24937       -0.10040
H          4.06682       -0.32661       -1.02147
H          2.95987        0.71686       -0.10837
H          4.15753       -0.25460        0.75103
H          1.81749       -1.30232       -0.70307
N         -2.87164       -1.79280       -0.04845
H         -2.36712       -1.96424       -0.91270
H         -3.35661       -0.90695       -0.15618
H         -3.56705       -2.52230        0.06042
