26
1msa1ma1dma_05.log	Energy: -561787.3312188
S          1.56535       -0.15722       -0.00003
O          1.23273       -1.59024       -0.00064
O          1.10300        0.55820        1.23090
O          1.10322        0.55914       -1.23051
H         -0.42845        1.43515       -0.79470
C          3.34604       -0.02872        0.00016
H          3.71995       -0.52431        0.89635
H          3.72016       -0.52285       -0.89674
H          3.61673        1.02720        0.00117
N         -2.49431       -0.82830       -0.00007
C         -2.03455       -1.51091        1.21737
C         -2.03447       -1.51126       -1.21725
H         -3.50991       -0.80150       -0.00008
H         -0.94124       -1.52246        1.22589
H         -2.39018       -0.96924        2.09824
H         -2.39120       -2.54916        1.27175
H         -0.94117       -1.52423       -1.22487
H         -2.39251       -2.54900       -1.27216
H         -2.38857       -0.96891       -2.09833
N         -1.08559        1.57254        0.00024
H         -1.73460        0.72203        0.00016
C         -1.79318        2.86054       -0.00026
H         -2.42180        2.93239        0.88818
H         -1.07071        3.67711        0.00160
H         -2.41836        2.93351       -0.89102
H         -0.42911        1.43534        0.79564
