32
1msa1dma1tma_28.log	Energy: -611098.6783586
S          1.15648        1.31231        0.04022
O          2.35901        2.14152       -0.02128
O          1.01133        0.48908        1.26595
O          1.01086        0.40805       -1.18044
H          1.42329       -0.92012       -0.85245
C         -0.26048        2.39185       -0.04906
H         -0.21377        3.06080        0.81120
H         -0.18602        2.96170       -0.97581
H         -1.17891        1.79900       -0.03077
N          1.78462       -1.92552       -0.52596
C          0.76926       -2.52012        0.37223
C          3.10030       -1.72188        0.12540
H          1.89468       -2.49775       -1.36103
H          0.62969       -1.82408        1.20017
H         -0.17046       -2.62274       -0.17227
H          1.10841       -3.49439        0.73139
H          2.94527       -1.05003        0.97105
H          3.50759       -2.67862        0.45935
H          3.77446       -1.24649       -0.58746
N         -2.89735        0.00816       -0.02342
C         -4.34164       -0.12675       -0.05162
H         -4.78078        0.38981        0.80678
H         -4.74102        0.32624       -0.96381
H         -4.66767       -1.18563       -0.02017
C         -2.28651       -0.61230       -1.18440
H         -2.70388       -0.17990       -2.09866
H         -1.20882       -0.42309       -1.18745
H         -2.46381       -1.70838       -1.21458
C         -2.33981       -0.51739        1.21036
H         -1.26429       -0.32157        1.25305
H         -2.80416       -0.02089        2.06739
H         -2.51073       -1.60900        1.31497
