31
1msa1dma1eda_136.log	Energy: -621169.8374950
S          0.23930        1.37047       -0.01461
O          0.35132        0.40762        1.08705
O         -0.65179        2.50631        0.18934
O         -0.14077        0.60458       -1.33012
H         -0.81932       -0.21955       -1.15853
C          1.86129        1.95229       -0.43825
H          2.21511        2.54281        0.40816
H          2.49563        1.07485       -0.60726
H          1.77768        2.57460       -1.32934
H         -2.57787       -2.50891        0.60811
H         -1.17330       -1.49820        1.04723
H         -3.25804       -0.51632        1.92732
H         -2.49835        0.54720        0.74650
H         -4.90696       -1.04671        0.31139
H         -4.61805        0.52171       -0.05634
H         -1.30193       -2.19875       -1.35377
H         -2.59912       -1.18545       -1.48054
C         -2.08581       -1.54000        0.44767
C         -3.01983       -0.40728        0.86105
N         -1.73009       -1.36048       -0.97238
N         -4.19720       -0.39814       -0.01103
N          3.27948       -1.07431       -0.28752
C          2.19647       -2.00501       -0.57108
C          3.53203       -0.93345        1.14072
H          4.12440       -1.37867       -0.75859
H          1.27799       -1.61364       -0.12339
H          2.04652       -2.07908       -1.65190
H          2.37179       -3.01767       -0.16609
H          2.64644       -0.49605        1.61217
H          3.75249       -1.89080        1.64401
H          4.37574       -0.25567        1.30012
