29
1msa2dma_48.log	Energy: -586423.7595414
S         -0.23448        1.41270       -0.13071
O         -0.12721        0.50790       -1.26004
O         -1.32564        2.37429       -0.06962
O          1.14750        2.28595       -0.08498
H          0.89885        3.21936       -0.14164
C         -0.10309        0.49201        1.37096
H         -0.97443       -0.17858        1.38617
H          0.84087       -0.06224        1.30812
H         -0.11907        1.19524        2.20357
N          2.60927       -0.75168        0.01043
C          2.15628       -1.98088       -0.62119
C          3.96871       -0.83596        0.51658
H          2.53243        0.01302       -0.65231
H          2.06807       -2.76878        0.13573
H          1.17107       -1.81486       -1.06262
H          2.83764       -2.34614       -1.40905
H          4.01150       -1.57984        1.31981
H          4.70795       -1.12887       -0.24926
H          4.26692        0.12860        0.93620
N         -2.64125       -1.47407        0.65719
C         -1.86571       -2.37606       -0.18477
C         -3.55121       -0.63622       -0.11492
H         -3.16750       -2.00989        1.33878
H         -1.23127       -1.77931       -0.84761
H         -1.21656       -2.99813        0.43839
H         -2.48917       -3.03546       -0.81214
H         -2.96947        0.01855       -0.77047
H         -4.24658       -1.21608       -0.74528
H         -4.13279       -0.00198        0.55878
