28
1msa1ma1eda_110.log	Energy: -596515.6393072
S          1.72433       -0.19376       -0.06295
O          1.61984        0.85070       -1.09139
O          1.59519       -1.58612       -0.60084
O          0.77853        0.00512        1.08377
H         -0.55946       -1.11526        0.86160
C          3.36373       -0.08387        0.62950
H          4.08093       -0.23864       -0.17684
H          3.48006        0.91049        1.06107
H          3.46977       -0.85254        1.39489
H         -3.61419       -1.71171        0.61171
H         -3.86393       -0.74288       -0.82814
H         -2.14366       -2.42046       -1.30715
H         -1.42359       -0.79309       -1.33778
H         -1.19663       -2.69076        0.91090
H          0.03740       -2.18130       -0.15820
H         -2.46620        0.08933        1.62267
H         -2.37854        0.93623        0.19526
C         -3.14479       -0.95232       -0.02818
C         -1.90176       -1.54227       -0.70208
N         -2.92624        0.25508        0.73558
N         -0.87830       -1.94217        0.29920
N         -1.10833        2.17391       -0.78794
H         -0.24986        1.74674       -1.13688
C         -0.77739        2.96877        0.39863
H         -0.07094        3.78743        0.20419
H         -1.69101        3.39406        0.82656
H         -0.32596        2.30324        1.13906
H         -1.47064        2.77211       -1.52317
