19
1msa1dma.log	Energy: -501633.7978639
H          1.21851       -0.28998       -0.78758
H          1.21851       -0.28992        0.78760
H          1.37392        1.89662       -0.00040
H          2.87235        1.51530        0.89479
H          2.87296        1.51511       -0.89450
H          3.62166       -0.94112       -0.89231
H          3.62184       -0.94098        0.89218
H          2.60085       -2.09954        0.00012
C          3.01135       -1.08970        0.00001
C          2.28684        1.29865       -0.00003
N          1.89761       -0.12760        0.00001
O         -1.63118        1.48611        0.00032
O         -0.44153       -0.31718       -1.22722
O         -0.44156       -0.31772        1.22711
S         -1.21031        0.08371        0.00002
C         -2.68275       -0.92356       -0.00019
H         -2.39014       -1.97339       -0.00055
H         -3.25361       -0.68040        0.89630
H         -3.25377       -0.67986       -0.89643
