23
1msa2ma_15.log	Energy: -537116.9553443
S          0.10866       -1.25029       -0.06300
O          1.00505       -2.38765       -0.16818
O         -0.03166       -0.37599       -1.23700
O          0.50533       -0.34865        1.16973
H          0.93244        0.55957        0.82452
C         -1.49908       -1.82013        0.43338
H         -1.82484       -2.53881       -0.31981
H         -1.39786       -2.30563        1.40403
H         -2.17577       -0.96231        0.46783
N          1.54178        1.76664        0.14979
H          0.97881        1.81918       -0.69678
C          2.94390        1.47449       -0.18543
H          3.40349        2.24581       -0.81173
H          3.51713        1.37440        0.73821
H          2.98195        0.51999       -0.71438
H          1.45274        2.65044        0.64129
N         -2.59235        1.21833       -0.51418
H         -1.88172        0.83412       -1.13184
C         -2.00267        2.16634        0.42394
H         -1.49511        3.02663       -0.04351
H         -2.77918        2.55836        1.08695
H         -1.27734        1.64036        1.05195
H         -3.30198        1.66185       -1.08565
