23
1msa2ma_36.log	Energy: -537106.3676249
S         -1.62486       -0.36485        0.04475
O         -0.70557       -1.46898        0.24253
O         -3.04862       -0.61568       -0.11059
O         -1.14362        0.42000       -1.30241
H         -1.91030        0.48546       -1.88945
C         -1.32292        0.87217        1.27402
H         -1.53648        0.40625        2.23749
H         -0.26365        1.17305        1.20009
H         -2.00033        1.70606        1.08967
N          1.72481        1.66962        0.61274
H          2.41820        1.99251        1.27906
C          1.55448        2.64415       -0.46248
H          2.47416        2.87135       -1.02189
H          0.81575        2.25959       -1.17181
H          1.16465        3.58374       -0.05676
H          2.05569        0.77895        0.22637
N          2.28674       -1.12626       -0.55784
H          1.30418       -1.36919       -0.45499
C          3.10862       -1.97155        0.30593
H          2.99375       -3.05023        0.12816
H          4.16379       -1.71438        0.17493
H          2.84870       -1.77496        1.35009
H          2.53015       -1.26535       -1.53240
