33
1msa2eda_120.log	Energy: -655906.7015300
S         -0.57530        1.63500       -0.00389
O         -0.38316        0.89343        1.26912
O         -1.86339        2.32957       -0.10855
O         -0.33451        0.72526       -1.19251
H         -1.46332       -0.23783       -1.32271
C          0.74329        2.82917       -0.09860
H          0.60580        3.53924        0.71761
H          1.68956        2.29524        0.00938
H          0.67811        3.33380       -1.06246
H         -2.52328       -3.03032       -0.87064
H         -0.87999       -2.56663       -1.39278
H         -1.14800       -3.05929        1.14011
H         -0.39724       -1.51141        0.72870
H         -2.83787       -1.85284        2.10915
H         -1.98562       -0.46722        1.77119
H         -2.75204       -1.04933       -2.15491
H         -2.90994       -0.65055       -0.52780
C         -1.73438       -2.27894       -0.77639
C         -1.33163       -2.07736        0.69292
N         -2.26572       -0.98209       -1.26514
N         -2.37440       -1.32451        1.38288
H          1.24126       -1.01733       -0.75267
H          2.30872       -2.42508       -0.99206
H          2.01688       -2.05341        1.38256
H          3.69042       -1.68329        0.93136
H          1.58984        0.29129        1.48388
H          3.05144        0.12438        2.21665
H          2.86212       -0.40620       -2.35059
H          3.33183        0.30593       -0.95680
C          2.27503       -1.38332       -0.64703
C          2.65416       -1.34279        0.82951
N          3.22618       -0.59209       -1.42245
N          2.56334        0.02643        1.33445
