34
1msa1eda1tma_49.log	Energy: -645831.0944358
S          0.17460       -1.14056        0.02298
O         -0.21732       -0.53398        1.29827
O          1.27045       -2.10575        0.06056
O          0.49140       -0.00232       -1.01325
H          1.17934        0.71580       -0.58792
C         -1.24255       -1.88657       -0.73824
H         -1.51972       -2.73516       -0.11078
H         -2.04707       -1.14220       -0.77021
H         -0.95451       -2.22611       -1.73320
H          3.59104        1.52744        1.60900
H          2.38062        0.22701        1.59216
H          4.55632       -0.61731        0.78792
H          3.34371       -0.68104       -0.48808
H          5.53036        1.25905       -0.29537
H          5.07514        0.34746       -1.57343
H          1.62573        2.35171        0.55997
H          2.73705        2.08769       -0.63716
C          3.00757        0.86106        0.95924
C          3.94462        0.00201        0.11846
N          2.13720        1.63519        0.05373
N          4.72834        0.86184       -0.77302
N         -3.43967        0.51529       -0.13649
C         -2.58854        1.69246       -0.19117
H         -1.64237        1.47871        0.31217
H         -2.37413        1.94455       -1.23410
H         -3.05801        2.57116        0.29262
C         -4.69892        0.73837       -0.82178
H         -4.51178        1.00802       -1.86570
H         -5.29718       -0.17796       -0.80810
H         -5.29591        1.54721       -0.35723
C         -3.64712        0.08173        1.23610
H         -4.23717       -0.84050        1.24639
H         -2.67960       -0.12020        1.70389
H         -4.18299        0.83939        1.83960
