29
1msa2dma_05.log	Energy: -586447.2653295
S         -1.79774       -0.13505       -0.03294
O         -1.29805       -1.09881       -1.03399
O         -2.19182        1.17534       -0.57881
O         -0.81745        0.02255        1.10868
H          0.38231        0.87736        0.52451
C         -3.24777       -0.86032        0.71696
H         -3.99197       -0.99998       -0.06769
H         -2.96907       -1.81787        1.15705
H         -3.61769       -0.17488        1.47961
N          1.24004        1.33346        0.07797
C          1.74903        2.38744        0.96966
C          0.88145        1.79994       -1.27867
H          1.93215        0.53493        0.00428
H          0.98513        3.15774        1.08839
H          1.97056        1.94815        1.94310
H          2.65483        2.82862        0.54779
H          0.08338        2.53929       -1.20694
H          1.76504        2.22332       -1.76192
H          0.50345        0.94912       -1.84643
N          2.63607       -1.08349       -0.04965
C          1.97817       -1.70641       -1.20657
C          2.17364       -1.66434        1.21596
H          3.64138       -1.20107       -0.12674
H          0.90235       -1.50552       -1.15312
H          2.37490       -1.27211       -2.12855
H          2.12601       -2.79545       -1.23662
H          1.10462       -1.45696        1.33066
H          2.32565       -2.75235        1.26021
H          2.70947       -1.20187        2.05015
