26
1msa1ma1dma_29.log	Energy: -561778.1908933
S         -0.17876       -0.32841       -0.27905
O          0.87765       -0.89048       -1.15141
O         -1.02029        0.70300       -0.89787
O          0.44569        0.15267        1.02420
H          1.83057        0.40445        0.84309
C         -1.24917       -1.66574        0.21220
H         -1.66811       -2.09788       -0.69763
H         -0.65598       -2.40537        0.75009
H         -2.04115       -1.24615        0.83892
N          2.91806        0.57704        0.63535
C          3.01597        1.41681       -0.58117
C          3.56862       -0.74500        0.49448
H          3.30662        1.07549        1.43373
H          2.52449        0.87665       -1.39186
H          2.48759        2.35392       -0.40362
H          4.06417        1.61001       -0.81988
H          3.04510       -1.27742       -0.30110
H          4.62699       -0.62043        0.25474
H          3.45639       -1.29061        1.43195
N         -3.54601        0.66662        0.85865
H         -3.90855        1.34530        1.51842
C         -4.52881        0.36893       -0.17762
H         -4.86862        1.24127       -0.75658
H         -4.09263       -0.34310       -0.88455
H         -5.40743       -0.10564        0.27101
H         -2.70760        1.05699        0.43343
