29
1msa2dma_13.log	Energy: -586439.2673021
S          0.14774       -1.02163       -0.04205
O         -0.36142       -1.46330        1.25721
O          1.52755       -1.53024       -0.35980
O          0.11984        0.47590       -0.21801
H          1.76083        1.07619       -0.13243
C         -0.92940       -1.67659       -1.30002
H         -0.97033       -2.75852       -1.17115
H         -1.91133       -1.21566       -1.15703
H         -0.51809       -1.41789       -2.27594
N          2.75137        0.76131        0.00091
C          3.12913        0.93266        1.41803
C          3.67203        1.36274       -0.97740
H          2.57764       -0.26669       -0.19116
H          3.17689        1.99616        1.65804
H          2.37083        0.44560        2.03235
H          4.10021        0.46686        1.59247
H          3.74932        2.43687       -0.79983
H          4.65674        0.90302       -0.87852
H          3.28264        1.18247       -1.97950
N         -3.00737        0.71097       -0.16637
C         -3.43451        0.20983        1.13011
C         -3.82103        1.81190       -0.64462
H         -2.02939        0.98632       -0.11889
H         -4.41817       -0.26514        1.03371
H         -2.71974       -0.53798        1.48290
H         -3.51816        1.00055        1.89809
H         -4.84152        1.45993       -0.83625
H         -3.88960        2.65384        0.06932
H         -3.41580        2.19214       -1.58703
