23
1msa2ma_43.log	Energy: -537105.2905525
S         -0.91750       -0.94777       -0.08598
O         -0.19504       -0.39860       -1.22154
O         -1.29904       -2.35038       -0.07905
O         -2.30010       -0.09216        0.06303
H         -3.03631       -0.71326       -0.03182
C         -0.08481       -0.49404        1.40668
H          0.88953       -0.99401        1.35434
H          0.04711        0.59312        1.38552
H         -0.68172       -0.83420        2.25222
N          0.34594        2.47611       -0.02966
H          1.11599        3.12416       -0.15491
C         -0.93144        3.18936       -0.01362
H         -1.14000        3.77069       -0.92340
H         -1.73967        2.46479        0.11509
H         -0.95557        3.87189        0.84076
H          0.37204        1.81830       -0.80449
N          2.67993       -1.17263       -0.10955
H          3.40904       -1.85410       -0.28638
C          3.24327        0.16069        0.09159
H          3.78789        0.56396       -0.77487
H          2.43593        0.85752        0.33903
H          3.92955        0.13967        0.94321
H          2.05641       -1.17553       -0.91156
