25
1msa1a1eda_61.log	Energy: -571851.0369138
S          1.26904       -0.62545        0.23329
O          0.49004       -0.80739        1.44517
O          2.70338       -0.91757        0.26465
O          1.08247        0.86884       -0.28100
H          1.99494        1.33346       -0.35413
C          0.50568       -1.54656       -1.07623
H          0.60043       -2.60096       -0.81084
H         -0.55288       -1.26049       -1.14492
H          1.04202       -1.33671       -2.00176
H         -3.80281       -0.62218        0.94272
H         -2.09875       -1.09573        1.08899
H         -2.32520        1.26129        1.60022
H         -1.39512        1.06042        0.11432
H         -4.19630        1.90836        0.24857
H         -2.93220        2.67978       -0.44350
H         -3.21512       -1.87766       -0.99794
H         -3.26051       -0.30802       -1.47682
C         -2.80317       -0.51255        0.48740
C         -2.39344        0.95298        0.54706
N         -2.75710       -0.97811       -0.89995
N         -3.32159        1.76568       -0.24611
N          3.52716        1.86971       -0.37317
H          3.74496        2.55814        0.33976
H          3.90334        2.19701       -1.25655
H          3.98773        0.99518       -0.12596
