34
1msa1eda1tma_12.log	Energy: -645839.0428222
S         -1.70948       -1.19778       -0.06370
O         -0.72064       -2.15438       -0.57010
O         -2.34960       -0.33931       -1.08647
O         -1.15343       -0.33770        1.05531
C         -3.01466       -2.14260        0.70862
H         -3.45569       -2.78403       -0.05503
H         -2.57705       -2.74329        1.50615
H         -3.75698       -1.45033        1.10594
H          2.52352       -2.05951        0.18917
H          1.69062       -1.11095       -1.02645
H          4.06958       -1.19028       -1.56279
H          3.64275        0.46897       -1.10389
H          4.98662       -1.45564        0.65243
H          5.58157       -0.04042        0.09501
H          0.99609       -0.44943        1.15187
H          2.54844       -0.04379        1.55930
C          2.40909       -1.03585       -0.20438
C          3.75604       -0.55225       -0.72170
N          1.88464       -0.10345        0.79221
N          4.72966       -0.51364        0.37336
N         -0.64096        2.03637        0.03093
C         -1.95693        2.68161       -0.18084
H         -2.55299        2.02274       -0.81352
H         -2.44796        2.80036        0.78612
H         -1.81214        3.65858       -0.64910
C          0.20489        2.76713        1.00027
H         -0.32161        2.82490        1.95412
H          1.13416        2.20593        1.11622
H          0.40101        3.77353        0.62085
C          0.07137        1.80613       -1.25124
H          1.00613        1.29493       -1.01544
H         -0.55973        1.17457       -1.87789
H          0.26175        2.77032       -1.73050
H         -0.84904        1.06853        0.44690
