33
1msa2eda_06.log	Energy: -655918.6150420
S         -0.31461        1.77146       -0.00139
O         -1.75273        1.68005        0.31028
O          0.06449        1.17748       -1.30456
O          0.55843        1.24812        1.10524
H          1.00853       -0.29851        0.89186
C          0.06593        3.51517       -0.09648
H         -0.53871        3.94680       -0.89453
H         -0.18120        3.97130        0.86228
H          1.12811        3.62818       -0.31475
H         -1.16335       -0.90942       -0.91293
H         -1.59776       -2.43423       -1.67891
H         -3.53987       -0.87648       -1.35950
H         -3.78539       -2.42180       -0.51994
H         -2.88355        0.06518        0.75712
H         -4.27558       -0.76385        1.05881
H         -1.62536       -2.23701        1.20144
H         -1.31891       -3.56545        0.30233
C         -1.71577       -1.84431       -0.76476
C         -3.18775       -1.50070       -0.52458
N         -1.12136       -2.57189        0.37422
N         -3.30621       -0.86504        0.78387
H          2.15467       -2.21645       -1.06771
H          1.37676       -0.62832       -1.36837
H          3.86560       -0.41739       -1.46068
H          3.15220        0.52245       -0.14464
H          4.63495       -1.98378        0.14920
H          4.79898       -0.58584        0.98199
H          0.47199       -1.90003        0.57944
H          2.00558       -1.60290        1.31066
C          2.01702       -1.19770       -0.69128
C          3.35357       -0.49506       -0.49314
N          1.32866       -1.27295        0.61769
N          4.12557       -1.19660        0.53605
