34
1msa1eda1tma_09.log	Energy: -645838.3859452
S          2.10405       -0.24633       -0.06451
O          1.56012        0.35573       -1.29794
O          1.76424       -1.67080        0.11582
O          1.74324        0.57018        1.15291
H          0.20944        0.53527        1.36112
C          3.88384       -0.13678       -0.16167
H          4.15768        0.91234       -0.27364
H          4.30455       -0.55350        0.75352
H          4.20495       -0.71280       -1.03005
H         -2.32702        2.13270        1.43014
H         -0.64903        2.68191        1.59796
H         -0.24509        1.76602       -0.78475
H         -1.99704        1.56218       -0.89892
H         -0.61807        4.11169       -0.53778
H         -1.65576        3.68042       -1.71510
H         -1.08518        0.39418        2.43694
H         -1.30223       -0.15188        0.84075
C         -1.30225        1.96812        1.08845
C         -1.20767        2.15442       -0.42298
N         -0.86019        0.60275        1.46715
N         -1.44979        3.56205       -0.72988
N         -1.91964       -1.43501       -0.10515
C         -1.35705       -2.61328        0.56159
H         -0.26560       -2.55413        0.52822
H         -1.68725       -2.63672        1.60600
H         -1.68660       -3.54575        0.07570
C         -3.37749       -1.44592       -0.06184
H         -3.71920       -1.48138        0.97762
H         -3.76994       -0.53596       -0.52629
H         -3.79947       -2.31552       -0.59203
C         -1.43063       -1.34942       -1.48460
H         -1.85143       -0.46400       -1.96884
H         -0.34263       -1.25811       -1.48729
H         -1.72596       -2.23796       -2.06608
