20
1msa1a1ma_08.log	Energy: -512460.9299606
S         -0.40971        0.38376        0.11594
O         -0.69083       -0.25892        1.39349
O         -0.18442       -0.49186       -1.03933
O          0.82539        1.35643        0.25159
H          1.69158        0.85930       -0.09079
C         -1.71281        1.53041       -0.24916
H         -2.62159        0.92731       -0.33329
H         -1.78009        2.24086        0.57475
H         -1.47788        2.03342       -1.18668
N          2.81046       -0.05183       -0.60259
H          2.38934       -0.45156       -1.43835
C          3.05187       -1.10365        0.39793
H          3.74512       -1.87548        0.04782
H          3.45373       -0.64762        1.30478
H          2.09721       -1.57109        0.64760
H          3.67540        0.40449       -0.87472
N         -3.22281       -1.40668       -0.22103
H         -2.52932       -1.71992       -0.89389
H         -4.02846       -2.01830       -0.28560
H         -2.80873       -1.51782        0.70006
