25
1msa1a1eda_54.log	Energy: -571851.7971528
S         -1.19791       -0.64106       -0.26665
O         -0.32287       -0.52175       -1.42453
O         -2.61729       -0.90762       -0.49872
O         -1.07487        0.67101        0.62106
H         -1.95277        1.20967        0.57156
C         -0.51398       -1.85285        0.83127
H          0.49025       -1.50437        1.10259
H         -1.16366       -1.93339        1.70263
H         -0.48085       -2.79448        0.28159
H          3.82254        1.23140        1.01197
H          4.00038       -0.52343        1.23673
H          4.22374        0.15721       -1.12009
H          2.86944       -0.95793       -0.88259
H          2.65537        1.34517       -2.18873
H          1.39960        0.71637       -1.36211
H          2.10538        0.28592        2.46005
H          1.42405        0.87298        1.10202
C          3.34689        0.25570        0.82636
C          3.22405        0.06412       -0.68149
N          2.03212        0.13800        1.45874
N          2.34428        1.07855       -1.26320
N         -3.40740        1.86430        0.37816
H         -3.43401        2.63271       -0.28437
H         -3.90495        2.14870        1.21531
H         -3.89239        1.06969       -0.03533
