28
1msa1ma1eda_165.log	Energy: -596511.0310621
S         -1.50799       -1.05868       -0.01400
O         -1.82832       -2.43516       -0.38320
O         -1.19124       -0.15822       -1.16803
O         -0.39452       -0.95393        1.00869
H          0.85990       -0.55510        0.22371
C         -2.94030       -0.36413        0.79027
H         -3.78132       -0.47004        0.10392
H         -3.11903       -0.93284        1.70304
H         -2.75883        0.69112        1.00107
H          2.83612        1.44730       -0.87677
H          1.93110        1.52659        0.64799
H          4.31286        0.84388        1.04618
H          3.17709       -0.42113        1.52533
H          4.86185       -0.45498       -0.86277
H          4.57781       -1.64833        0.22210
H          0.77153        0.22372       -1.18909
H          2.02388       -0.88905       -1.00392
C          2.45501        0.85871       -0.03715
C          3.58837        0.11365        0.66365
N          1.49533       -0.13722       -0.55010
N          4.15621       -0.86524       -0.26129
N         -1.94058        2.67107       -0.33320
H         -1.93604        1.86732       -0.95742
C         -0.64154        2.79777        0.30856
H          0.20336        2.96037       -0.38474
H         -0.65388        3.63042        1.01875
H         -0.44261        1.88311        0.87823
H         -2.16931        3.49863       -0.87110
