33
1msa2eda_46.log	Energy: -655916.7025940
S         -1.08921        1.38417        0.08884
O         -1.83344        0.56349        1.07146
O         -0.66921        0.61235       -1.10888
O          0.06903        2.10508        0.70196
H          1.35358        1.07029        0.93027
C         -2.20532        2.65663       -0.47154
H         -1.67485        3.28210       -1.18952
H         -3.06272        2.17122       -0.93830
H         -2.51770        3.24033        0.39448
H         -1.63658       -3.80431        0.38228
H         -1.23671       -3.67739       -1.32537
H          0.78630       -3.23109       -0.07233
H          0.24189       -1.73035       -0.84884
H         -0.72140       -1.08594        1.27320
H         -0.06195       -2.41036        1.98507
H         -2.67233       -1.66453        0.26709
H         -2.17081       -1.42652       -1.24561
C         -1.35527       -3.09224       -0.40481
C          0.00345       -2.46231       -0.06947
N         -2.45227       -2.15548       -0.59439
N          0.05739       -1.75322        1.21865
H          2.42489       -1.27685       -0.90013
H          3.95712       -0.51546       -1.32064
H          3.78146       -0.71297        1.08903
H          3.78865        1.00652        0.60475
H          1.31385       -0.58957        1.29645
H          2.12478        0.51554        2.28146
H          2.51637        0.68156       -2.60446
H          1.31688        0.75889       -1.49161
C          2.97375       -0.32140       -0.88031
C          3.22350        0.07244        0.57056
N          2.33123        0.75477       -1.61199
N          1.95006        0.28051        1.30607
