32
1msa1dma1tma_04.log	Energy: -611105.8591622
S          1.82178       -0.42692       -0.09731
O          1.46359       -0.04688        1.28993
O          3.01044        0.23201       -0.64178
O          0.60739       -0.26964       -0.99196
C          2.13845       -2.18582       -0.08870
H          2.34899       -2.49961       -1.11132
H          3.00136       -2.36680        0.55282
H          1.25688       -2.69622        0.30095
N         -2.06893       -1.21258       -0.12295
C         -3.15939       -1.87900       -0.81502
C         -1.68308       -1.89155        1.10636
H         -1.24649       -1.15593       -0.72093
H         -4.07229       -1.82185       -0.21095
H         -3.35534       -1.37885       -1.76819
H         -2.96239       -2.94542       -1.02073
H         -2.48648       -1.80804        1.84845
H         -1.47815       -2.96675        0.96096
H         -0.78394       -1.42139        1.51642
N         -0.70762        1.80196        0.01100
C         -1.78538        2.09274       -0.95937
H         -1.34680        2.16620       -1.95537
H         -2.49563        1.26524       -0.92474
H         -2.27313        3.03400       -0.69380
C         -1.23226        1.59942        1.38267
H         -2.00871        0.83613        1.32913
H         -0.40769        1.24681        2.00310
H         -1.63442        2.54550        1.75490
C          0.37468        2.81594       -0.02024
H          1.14642        2.51056        0.68702
H          0.80320        2.84110       -1.02259
H         -0.03742        3.79189        0.24726
H         -0.25010        0.89412       -0.31545
