28
1msa1ma1eda_170.log	Energy: -596508.3661995
S          2.23579       -0.27025        0.00564
O          3.66179       -0.00784        0.06720
O          1.57828       -0.23830       -1.30762
O          1.45600        0.70761        0.96584
H          0.83099        1.35607        0.40490
C          1.90820       -1.84120        0.77253
H          2.44122       -2.59516        0.19177
H          2.29183       -1.80408        1.79220
H          0.83016       -2.01625        0.75113
H         -2.79005       -0.48377       -1.65816
H         -2.58842       -2.22401       -1.42087
H         -4.57857       -1.54716       -0.24669
H         -3.33622       -1.94592        0.95302
H         -4.22572        0.73702        0.21649
H         -4.11812        0.07201        1.70229
H         -0.50122       -0.95219       -1.00338
H         -1.23434       -0.29330        0.31339
C         -2.54674       -1.25750       -0.90685
C         -3.61596       -1.22615        0.17749
N         -1.22935       -1.09566       -0.30946
N         -3.67581        0.10605        0.79102
N         -0.04950        2.22197       -0.47104
H          0.52415        2.97489       -0.84103
C         -1.27578        2.74306        0.14956
H         -1.86877        3.36101       -0.53429
H         -1.89116        1.90555        0.49044
H         -1.00439        3.34487        1.01970
H         -0.25828        1.60675       -1.25458
