33
1msa2eda_73.log	Energy: -655913.6442069
S         -2.05805       -1.02901        0.08593
O         -2.48055       -2.42767        0.13553
O         -1.06973       -0.74876       -1.03135
O         -1.52945       -0.47905        1.35998
H          1.25742        0.13410        0.59955
C         -3.48477       -0.04108       -0.34121
H         -3.87108       -0.39604       -1.29719
H         -4.22938       -0.17735        0.44394
H         -3.17578        1.00385       -0.40543
H          2.30531       -1.39943       -1.74246
H          2.31795        0.35262       -1.50232
H          4.58152       -0.60376       -1.08083
H          3.90768        0.10763        0.39036
H          4.04781       -2.76222       -0.18042
H          4.57968       -1.95303        1.13946
H          0.40344       -0.86840       -0.44103
H          1.57216       -1.53397        0.61656
C          2.43444       -0.60899       -0.99730
C          3.79668       -0.71816       -0.32044
N          1.36323       -0.74095        0.00520
N          3.86087       -1.97130        0.42674
H         -0.25673        3.48396        1.28608
H          1.51285        3.37659        1.17761
H          0.54391        3.90696       -0.97576
H          1.37189        2.35021       -1.02790
H         -0.97219        2.57934       -2.04544
H         -0.78731        1.28571       -1.06789
H          0.81919        1.55585        2.43649
H         -0.35439        1.10321        1.41078
C          0.57554        2.88524        0.89245
C          0.48099        2.86985       -0.62860
N          0.58085        1.52657        1.44981
N         -0.77987        2.30583       -1.08915
