28
1msa1ma1eda_82.log	Energy: -596518.7435168
S         -1.77448       -0.11352        0.00959
O         -1.02832        0.32743       -1.19453
O         -1.43237        0.63413        1.22930
O         -1.63933       -1.60639        0.18627
C         -3.50899        0.14985       -0.31260
H         -3.66256        1.21984       -0.45507
H         -3.78147       -0.40247       -1.21186
H         -4.07263       -0.20733        0.54936
H          0.97071       -0.34418        1.02021
H          1.52026       -1.84875        1.76944
H          3.40480       -0.22140        1.20844
H          3.61277       -1.80583        0.44847
H          2.53597        0.59474       -0.88073
H          3.88167       -0.29218       -1.30601
H         -0.17682       -1.94794       -0.11921
H          1.16788       -1.50048       -1.11187
C          1.56411       -1.24790        0.85974
C          2.99331       -0.90003        0.44748
N          0.89771       -1.98891       -0.24428
N          2.95602       -0.34815       -0.89956
H          1.22282       -2.95106       -0.30976
N          1.31443        2.14685       -0.63169
H          1.50105        2.85117       -1.33831
C          1.14257        2.77901        0.67843
H          0.41119        3.59838        0.68425
H          0.78346        2.03199        1.39048
H          2.10184        3.16977        1.03370
H          0.44782        1.67651       -0.90279
