28
1msa1ma1eda_85.log	Energy: -596518.3978903
S         -1.91454       -0.18935        0.01002
O         -0.70313       -0.93424       -0.50914
O         -2.13896        1.07613       -0.70485
O         -1.82971       -0.06208        1.48395
C         -3.30048       -1.25341       -0.35447
H         -3.35608       -1.38344       -1.43539
H         -3.14554       -2.20995        0.14460
H         -4.20050       -0.76457        0.01947
H          0.10099        1.92192        1.14576
H          1.72673        1.94759        1.87379
H          1.88164        2.99031       -0.29769
H          2.72877        1.45929       -0.37601
H          0.78019        0.55419       -1.53555
H          0.03936        1.97487       -1.45272
H          0.56222       -0.16680        2.10598
H          0.42361       -0.37138        0.48897
C          1.12121        1.53966        1.05859
C          1.72803        1.90586       -0.30074
N          1.04548        0.06428        1.23763
N          0.96442        1.55222       -1.48095
H          1.98253       -0.39556        1.17760
N          3.38274       -1.39424        0.44880
H          4.30720       -0.97462        0.43665
C          2.89830       -1.61047       -0.92549
H          3.51939       -2.30117       -1.50676
H          1.87671       -1.99894       -0.89313
H          2.87020       -0.65272       -1.45130
H          3.47866       -2.28348        0.93005
