26
1msa1ma1dma_11.log	Energy: -561784.9584034
S          1.73344       -0.03684       -0.00002
O          3.00112        0.68955       -0.00006
O          0.89585        0.17853       -1.22760
O          0.89604        0.17827        1.22774
H         -0.46590        1.24622        0.79275
C          2.12255       -1.78248       -0.00022
H          2.70464       -1.99827       -0.89660
H          2.70485       -1.99844        0.89597
H          1.19198       -2.35186       -0.00017
N         -2.71560       -0.76592        0.00009
C         -2.19272       -1.39503        1.21730
C         -2.19297       -1.39430       -1.21760
H         -3.72873       -0.82462        0.00017
H         -1.11498       -1.21130        1.28480
H         -2.66664       -0.94569        2.09402
H         -2.36858       -2.48051        1.23968
H         -1.11523       -1.21055       -1.28520
H         -2.36883       -2.47976       -1.24060
H         -2.66706       -0.94442       -2.09396
N         -1.08753        1.52036        0.00053
H         -0.46562        1.24566       -0.79134
C         -1.48243        2.93697       -0.00012
H         -2.07350        3.15267       -0.89076
H         -2.07392        3.15342        0.89006
H         -0.58763        3.55994       -0.00018
H         -1.88856        0.83401        0.00056
