29
1msa1ma1tma_16.log	Energy: -586441.4218929
S          1.32047       -0.92612        0.00235
O          1.42777       -2.38481       -0.07609
O          0.89386       -0.39573        1.32037
O          0.40950       -0.35948       -1.08072
H         -0.96546       -0.35717       -0.51596
C          2.91942       -0.22561       -0.35885
H          3.61399       -0.58783        0.39976
H          3.22228       -0.56763       -1.34878
H          2.83455        0.86229       -0.32545
N          0.91904        2.54995       -0.01993
H          0.60433        1.89859       -0.73279
C          0.16036        3.78924       -0.02225
H         -0.92381        3.68224        0.16484
H          0.55682        4.46562        0.74067
H          0.27900        4.28753       -0.98899
H          0.85555        2.05633        0.86484
N         -1.96423       -0.41468       -0.07104
C         -2.94215       -0.26924       -1.16789
H         -2.79766        0.70073       -1.64540
H         -2.77099       -1.05909       -1.90022
H         -3.95793       -0.34120       -0.77021
C         -2.04315       -1.74842        0.57457
H         -1.84735       -2.51340       -0.17739
H         -1.26921       -1.80242        1.34088
H         -3.03598       -1.88298        1.01206
C         -2.06474        0.67664        0.92475
H         -1.24459        0.55480        1.63365
H         -1.95713        1.63319        0.41106
H         -3.03508        0.62576        1.42605
