26
1msa1ma1dma_41.log	Energy: -561776.8663783
S          1.60382       -0.31394        0.14712
O          0.23623       -0.86897       -0.01161
O          2.12887       -0.32854        1.51102
O          1.65444        1.06473       -0.48928
H          0.35380        1.69260       -0.37613
C          2.68913       -1.30519       -0.86456
H          2.31792       -1.29645       -1.88919
H          3.68908       -0.87472       -0.80870
H          2.68460       -2.31706       -0.45850
N         -0.67278        2.09586       -0.25781
C         -1.10555        1.82076        1.13377
C         -1.53199        1.46245       -1.28400
H         -0.62466        3.10143       -0.41180
H         -1.09119        0.73938        1.27533
H         -0.39213        2.27970        1.81874
H         -2.10871        2.21925        1.29827
H         -1.45717        0.38244       -1.14571
H         -2.56479        1.79802       -1.16860
H         -1.15359        1.73018       -2.27098
N         -2.54249       -2.11663       -0.35258
H         -1.55176       -1.92671       -0.22803
C         -3.36019       -1.31180        0.53778
H         -3.28424       -0.21836        0.39402
H         -4.41409       -1.58385        0.42288
H         -3.08013       -1.52504        1.57333
H         -2.78198       -1.96756       -1.32531
