33
1msa2eda_50.log	Energy: -655914.3538511
S          2.37697       -0.15222       -0.01080
O          1.94931       -1.28570       -0.86070
O          1.57836       -0.10718        1.26281
O          2.38618        1.15178       -0.70896
C          4.06033       -0.47083        0.49153
H          4.08876       -1.42871        1.01102
H          4.67677       -0.50104       -0.40735
H          4.37984        0.33673        1.15044
H         -1.59228       -2.04559        1.72238
H         -2.35571       -0.46139        1.39655
H         -3.81582       -2.30841        0.61077
H         -3.26238       -1.30789       -0.73342
H         -2.19672       -3.95711       -0.07016
H         -2.80291       -3.42908       -1.49764
H          0.09170       -0.67760        0.76882
H         -0.41106       -1.69812       -0.44127
C         -1.92392       -1.35478        0.94153
C         -2.93113       -2.03073        0.02001
N         -0.73662       -0.94194        0.17053
N         -2.29196       -3.14563       -0.67111
H         -0.90033       -0.09550       -0.43038
H         -2.47178        3.55845       -0.54868
H         -2.31515        3.36497        1.19985
H         -0.12546        3.38489        0.04300
H         -0.38300        1.89962        0.95388
H         -0.84253        2.09593       -1.93919
H          0.48165        1.46535       -1.21414
H         -4.01118        1.91578        0.45395
H         -3.04468        1.23196       -0.66762
C         -2.19273        2.84455        0.24506
C         -0.72656        2.46638        0.08170
N         -3.05079        1.65585        0.25544
N         -0.52722        1.61651       -1.09946
