26
1msa1ma1dma_66.log	Energy: -561767.1969619
S          1.64639       -0.32343        0.04961
O          1.19916        0.12997        1.35049
O          0.94403       -1.41999       -0.60923
O          3.20107       -0.79384        0.17561
H          3.22752       -1.75488        0.06211
C          1.81981        1.05910       -1.03730
H          0.80872        1.49154       -1.13965
H          2.50485        1.76684       -0.56943
H          2.20953        0.69819       -1.98879
N         -2.10897       -0.85832       -0.16692
C         -3.22720       -1.50781       -0.82994
C         -2.23528       -0.84764        1.28353
H         -1.23744       -1.31335       -0.42410
H         -4.14391       -0.93456       -0.65092
H         -3.05282       -1.53486       -1.90908
H         -3.40445       -2.53942       -0.47970
H         -3.07732       -0.20822        1.57282
H         -2.40806       -1.84924        1.71329
H         -1.32456       -0.43487        1.72435
N         -1.22356        2.02640       -0.76405
H         -1.79517        2.56988       -1.40191
C         -1.18663        2.65528        0.55623
H         -2.17182        2.77351        1.03140
H         -0.56327        2.04847        1.21937
H         -0.72472        3.64534        0.48420
H         -1.63988        1.09121       -0.69101
