20
1msa1a1ma_13.log	Energy: -512459.1575946
S         -0.51185       -0.66539       -0.12538
O          0.29522       -0.93635       -1.30150
O         -1.89855       -1.13222       -0.09714
O         -0.51758        0.90429        0.15090
H         -1.47881        1.26782        0.09899
C          0.35380       -1.26199        1.30506
H          0.48435       -2.33631        1.16916
H          1.31642       -0.73910        1.34328
H         -0.25113       -1.05234        2.18714
N          2.65881        0.97695        0.62241
H          1.81704        1.48482        0.36596
C          3.36626        0.51983       -0.57442
H          3.71438        1.32797       -1.23441
H          4.23548       -0.07382       -0.27579
H          2.69976       -0.12607       -1.15113
H          3.23797        1.60471        1.16889
N         -3.04893        1.62055       -0.02965
H         -3.49422        2.07488        0.76062
H         -3.41144        0.67152       -0.10612
H         -3.30253        2.12691       -0.87175
