28
1msa1ma1eda_163.log	Energy: -596508.3377030
S         -0.83182       -0.88746       -0.34855
O          0.12133       -1.24001       -1.38659
O         -2.22328       -1.32403       -0.48877
O         -0.83150        0.68463       -0.15585
H         -1.81014        1.05564       -0.22700
C         -0.19680       -1.44900        1.21140
H         -0.14795       -2.53786        1.15704
H          0.80463       -1.02195        1.35901
H         -0.88673       -1.13560        1.99540
H          4.28547       -0.55326       -0.36678
H          2.66610       -1.24287       -0.59734
H          2.80812        0.87544       -1.75913
H          1.66251        1.00652       -0.42331
H          4.38204        2.09583       -0.42990
H          2.97269        2.88358       -0.17865
H          3.49031       -1.24858        1.76322
H          3.31774        0.38314        1.74308
C          3.21901       -0.43430       -0.10823
C          2.72300        0.89437       -0.66320
N          2.97815       -0.48495        1.33517
N          3.45145        2.00233       -0.03563
N         -3.30609        1.43630       -0.31586
H         -3.51143        2.36008       -0.68317
C         -3.94512        1.22355        0.98985
H         -5.03215        1.35583        0.96382
H         -3.72311        0.20510        1.31466
H         -3.52152        1.92123        1.71580
H         -3.64493        0.74882       -0.98488
