31
1msa1dma1eda_33.log	Energy: -621182.3535159
S         -1.92704       -0.28104       -0.07242
O         -1.28453       -0.26448        1.26619
O         -1.61403       -1.47516       -0.87287
O         -1.64030        0.99164       -0.82452
H         -0.08084        0.88224       -1.23304
C         -3.68974       -0.26385        0.21070
H         -3.93801        0.62569        0.78989
H         -4.18979       -0.24788       -0.75779
H         -3.94799       -1.16830        0.76218
H          2.68783        1.84957       -0.67929
H          1.47755        2.86194       -1.50592
H          1.53561        3.34022        0.88665
H         -0.04310        2.69937        0.40486
H          1.27499        1.78487        2.48115
H          0.33360        0.79773        1.58049
H          1.19711        0.69087       -2.31802
H          1.34045       -0.04646       -0.79470
C          1.61753        2.04875       -0.78825
C          1.01156        2.43668        0.55906
N          0.97684        0.82394       -1.33392
N          1.17708        1.38031        1.55762
N          2.12962       -1.16527        0.16004
C          3.47483       -1.48193       -0.30336
C          1.33405       -2.35125        0.48511
H          2.17367       -0.54562        0.97057
H          3.41669       -2.02751       -1.25121
H          4.03622       -0.55756       -0.47256
H          4.03762       -2.10329        0.40916
H          1.11724       -2.90693       -0.43139
H          1.85883       -3.01560        1.18792
H          0.38163       -2.03603        0.91374
