33
1msa2eda_16.log	Energy: -655918.4865595
S         -1.04714       -1.51777       -0.07305
O         -1.08801       -0.64263        1.13381
O          0.02073       -2.53002       -0.03612
O         -1.03640       -0.68614       -1.31985
H         -0.26288        0.75494       -0.87265
C         -2.59344       -2.41060       -0.10303
H         -3.41049       -1.68961       -0.13998
H         -2.59993       -3.04619       -0.98879
H         -2.65041       -3.01352        0.80358
H         -0.29423        3.60185        0.02010
H         -0.57355        3.03146       -1.64803
H         -2.70391        3.47705       -0.40301
H         -2.57043        1.79282       -0.93247
H         -3.15619        2.43280        1.56289
H         -2.16730        1.14446        1.28161
H          1.13539        1.65523       -0.45626
H         -0.07333        1.26475        0.65996
C         -0.69614        2.78911       -0.58948
C         -2.16152        2.54131       -0.23834
N          0.09060        1.56885       -0.30696
N         -2.27061        2.15243        1.16275
H          4.49444        0.59993        0.54640
H          3.22490        1.43152        1.46134
H          3.13986       -1.05573        1.73577
H          1.64947       -0.41944        1.06471
H          3.60626       -2.00694       -0.34708
H          1.95976       -1.98365       -0.44287
H          3.47135        2.13178       -0.93164
H          2.91223        0.63045       -1.32449
C          3.40863        0.76197        0.61369
C          2.70981       -0.58151        0.84280
N          2.87951        1.36974       -0.61765
N          2.79318       -1.40259       -0.36056
