26
1msa1ma1dma_63.log	Energy: -561767.2171344
S         -1.67928       -0.15633        0.01585
O         -1.22263        0.18510        1.34678
O         -1.52140        0.80508       -1.07073
O         -3.27238       -0.48908        0.09416
H         -3.73925        0.18795       -0.41637
C         -1.03801       -1.73749       -0.44483
H          0.06078       -1.61824       -0.45884
H         -1.34731       -2.45682        0.31390
H         -1.43700       -1.99607       -1.42529
N          2.03192       -0.89441       -0.11807
C          3.17255       -1.47145       -0.80774
C          2.17954       -0.91893        1.32903
H          1.90341        0.07609       -0.42281
H          3.24693       -2.54194       -0.58169
H          3.04136       -1.36444       -1.88837
H          4.13429       -1.00486       -0.52976
H          2.21751       -1.95669        1.68248
H          3.09500       -0.41322        1.68315
H          1.31421       -0.43685        1.79229
N          1.34149        2.01733       -0.79772
H          1.86714        2.60162       -1.43846
C          1.20166        2.66717        0.50672
H          0.73956        3.66369        0.46645
H          0.58462        2.03558        1.15072
H          2.18607        2.76350        0.97438
H          0.42417        1.85692       -1.20566
