34
1msa1eda1tma_62.log	Energy: -645827.1214977
S          0.04046       -0.56277        0.21080
O         -0.14449       -1.56880       -0.81911
O         -0.07559        0.85271       -0.16417
O          1.44258       -0.75866        0.91292
H          2.03545        0.12826        0.78997
C         -1.09737       -0.89191        1.53314
H         -2.10248       -0.74560        1.11506
H         -0.94540       -1.91958        1.86375
H         -0.90238       -0.18586        2.34047
H          5.14734        0.25479        0.78654
H          5.68205        0.36595       -0.89145
H          4.33731        2.26992       -0.60164
H          3.29504        1.11972       -1.46368
H          3.18182        1.75560        1.40103
H          2.01277        1.98487        0.26667
H          4.92266       -1.84871       -0.50784
H          3.41639       -1.34489       -0.09612
C          4.80371        0.18681       -0.26262
C          3.80843        1.31286       -0.51819
N          4.24591       -1.10546       -0.63113
N          2.78390        1.37926        0.54455
N         -3.74508        0.18261       -0.11962
C         -3.41188       -0.13889       -1.49976
H         -2.35992        0.08671       -1.68981
H         -3.56533       -1.20671       -1.67841
H         -4.03123        0.43041       -2.21909
C         -5.12463       -0.15323        0.18211
H         -5.29795       -1.21699       -0.00595
H         -5.33441        0.04647        1.23765
H         -5.84317        0.42712       -0.42860
C         -3.46369        1.57923        0.17282
H         -3.67216        1.78444        1.22819
H         -2.40693        1.78501       -0.01851
H         -4.07738        2.26734       -0.43974
