32
1msa1dma1tma_23.log	Energy: -611100.0485638
S          1.21187       -1.38178       -0.00003
O          2.41081       -2.21611       -0.00001
O          1.06572       -0.51990       -1.22666
O          1.06579       -0.51973        1.22652
H          1.31991        1.09929        0.78524
C         -0.20813       -2.46078        0.00015
H         -0.14906       -3.08149       -0.89471
H         -0.14937       -3.08073        0.89555
H         -1.12481       -1.86493       -0.00023
N          1.52548        1.77101       -0.00004
C          2.96655        2.09172        0.00045
C          0.61701        2.92954       -0.00055
H          1.32037        1.09911       -0.78528
H          3.21182        2.66753        0.89436
H          3.52156        1.15285        0.00110
H          3.21260        2.66674       -0.89376
H          0.79366        3.53180        0.89224
H          0.79453        3.53169       -0.89325
H         -0.41141        2.56669       -0.00109
N         -2.82598       -0.06742        0.00013
C         -4.27277        0.04312        0.00016
H         -4.68397       -0.44939       -0.88570
H         -4.68387       -0.44888        0.88636
H         -4.61617        1.09684       -0.00011
C         -2.25040        0.51367        1.19886
H         -2.68356        0.04171        2.08544
H         -1.17082        0.33442        1.22414
H         -2.44156        1.60536        1.26918
C         -2.25039        0.51302       -1.19891
H         -1.17098        0.33269       -1.22463
H         -2.68434        0.04127       -2.08523
H         -2.44069        1.60484       -1.26941
