28
1msa1ma1eda_145.log	Energy: -596509.1275711
S         -0.82492        1.07104        0.32463
O         -0.30103        0.55330        1.58112
O         -2.22386        1.50007        0.28930
O         -0.61245       -0.00858       -0.82018
H         -1.52880       -0.52440       -0.97989
C          0.23813        2.36899       -0.24639
H          0.25919        3.12734        0.53714
H          1.22792        1.92754       -0.41679
H         -0.17952        2.77419       -1.16804
H          4.03854       -1.26499       -0.83147
H          4.33655        0.24627        0.05740
H          3.44056       -1.50090        1.51017
H          2.32896       -0.12028        1.42331
H          1.41349       -2.47260        1.16902
H          0.90144       -1.38185        0.08843
H          3.23566        0.71951       -2.00183
H          1.97582       -0.23605       -1.61423
C          3.55234       -0.41806       -0.32348
C          2.75106       -0.96064        0.85245
N          2.69531        0.36501       -1.21932
N          1.72274       -1.89796        0.39307
N         -2.88122       -1.19046       -0.99112
H         -3.51011       -0.40135       -0.85635
C         -2.94597       -2.10219        0.16225
H         -3.93872       -2.54015        0.30678
H         -2.21833       -2.90438        0.02232
H         -2.66992       -1.54633        1.06103
H         -3.14655       -1.66139       -1.85039
