33
1msa2eda_07.log	Energy: -655920.0536389
S         -1.94250       -0.76458       -0.07091
O         -1.15283       -1.68197       -0.91948
O         -2.22610        0.54346       -0.70487
O         -1.32363       -0.60341        1.28906
C         -3.52448       -1.54187        0.21607
H         -4.00925       -1.67835       -0.75094
H         -3.35216       -2.50338        0.70001
H         -4.11807       -0.88779        0.85499
H          1.91727       -2.47010        0.79195
H          1.16950       -2.03243       -0.75147
H          3.63269       -2.36135       -1.03675
H          3.19615       -0.67598       -1.33311
H          4.46038       -1.68658        1.10815
H          4.96301       -0.47946        0.12722
H          2.00133       -0.04503        1.25379
H          1.12926        0.26458       -0.15949
C          1.87979       -1.70495        0.01034
C          3.26777       -1.44364       -0.55523
N          1.34075       -0.46386        0.59840
N          4.14133       -0.93670        0.50350
H          0.41652       -0.61903        1.05677
H         -1.21762        2.96501        0.01848
H          0.00933        4.07357        0.64504
H          0.48818        3.49681       -1.64843
H          1.77508        2.90838       -0.57597
H         -0.42755        1.14821       -1.42874
H          0.98438        1.26677       -2.26222
H          0.01712        2.63020        2.34079
H         -0.56550        1.37658        1.48078
C         -0.16924        3.03749        0.33764
C          0.72768        2.76134       -0.86633
N          0.11355        2.13783        1.46086
N          0.56742        1.38098       -1.34404
