31
1msa1dma1eda_124.log	Energy: -621172.1429353
S          0.03314        1.01839        0.17210
O         -1.06939        1.99857        0.11720
O          0.31144        0.35304       -1.12233
O         -0.20249       -0.03015        1.24158
H         -0.97844       -1.12545        0.49865
C          1.50278        1.88578        0.67427
H          1.68782        2.66278       -0.06879
H          1.31328        2.33098        1.65140
H          2.33722        1.17753        0.71147
H         -3.62341       -2.33964       -0.29789
H         -3.03741       -2.05610        1.36470
H         -4.58645       -0.21901        0.49724
H         -2.99323        0.36891        0.99403
H         -4.07511        0.49171       -1.61715
H         -2.64976        1.11267       -1.03212
H         -1.25168       -2.63772       -0.29422
H         -1.60253       -1.18604       -1.05118
C         -3.02415       -1.68262        0.33840
C         -3.52022       -0.23364        0.24771
N         -1.62557       -1.70282       -0.15650
N         -3.24112        0.28491       -1.08556
N          3.80674       -0.53814        0.15392
C          3.67755       -0.37158       -1.28800
C          3.02160       -1.65277        0.66139
H          4.78172       -0.66288        0.40229
H          2.63629       -0.13158       -1.52669
H          4.30637        0.45978       -1.61937
H          3.96178       -1.27407       -1.85846
H          1.95849       -1.43296        0.52198
H          3.24542       -2.61183        0.15926
H          3.19723       -1.77154        1.73410
