33
1msa2eda_74.log	Energy: -655914.9734163
S         -2.28859       -0.40681        0.03326
O         -1.05505       -1.15599       -0.36913
O         -2.46125        0.83156       -0.76230
O         -2.31583       -0.17279        1.49820
C         -3.66611       -1.47101       -0.35872
H         -3.65464       -1.65954       -1.43236
H         -3.55211       -2.40051        0.19919
H         -4.58138       -0.95500       -0.06777
H         -0.88277        2.03992        0.97127
H          0.59489        2.48220        1.85754
H          0.52763        3.51131       -0.36531
H          1.92000        2.43157       -0.21265
H         -0.58282        1.45937       -1.42806
H          0.64863        2.11841       -2.29996
H         -0.08074        0.14859        1.99590
H          0.11686       -0.08495        0.41198
C          0.20407        1.93225        0.99814
C          0.82496        2.45443       -0.28969
N          0.48153        0.48735        1.21094
N          0.42442        1.64266       -1.43306
H          1.50721        0.26798        1.33645
H          4.37247       -1.78970        0.32809
H          2.96075       -2.29611        1.27722
H          2.70418       -2.50143       -1.24766
H          1.42007       -1.61252       -0.46068
H          3.15469       -0.63501       -2.43129
H          1.92031        0.16191       -1.67331
H          3.83929       -0.13984        1.99233
H          3.55863        0.44844        0.48201
C          3.32843       -1.54494        0.57027
C          2.48597       -1.57140       -0.71085
N          3.22613       -0.21120        1.18666
N          2.76785       -0.39087       -1.52945
