20
1msa1a1ma_05.log	Energy: -512465.8495865
S         -1.24127        0.02813       -0.06861
O         -2.47257        0.76338       -0.34713
O         -0.51195        0.52238        1.16353
O         -0.28825       -0.05908       -1.20749
H          1.08754        2.50511       -0.50801
C         -1.70047       -1.65063        0.33927
H         -2.37327       -1.62153        1.19658
H         -2.20552       -2.07657       -0.52824
H         -0.79811       -2.21559        0.57537
N          2.53766       -0.37083       -0.67408
H          1.65814       -0.49827       -1.18296
C          2.55360       -1.27719        0.48093
H          2.47750       -2.33580        0.20479
H          3.47492       -1.13386        1.05208
H          1.70542       -1.02994        1.12641
H          3.30900       -0.56556       -1.30318
N          1.45489        1.95687        0.26648
H          0.61563        1.44076        0.73142
H          1.94765        2.55877        0.91894
H          2.07705        1.17350       -0.12477
