23
1msa2ma_14.log	Energy: -537117.2951337
S          1.59243       -0.16513       -0.14498
O          2.99664       -0.29173       -0.47735
O          0.58733       -0.60883       -1.12054
O          1.28185        1.31954        0.25207
H          0.28739        1.60083       -0.04210
C          1.28690       -1.04437        1.37636
H          1.50296       -2.09801        1.19365
H          1.95424       -0.64638        2.14066
H          0.23853       -0.90613        1.64860
N         -1.09692        1.91152       -0.45209
H         -1.15649        2.80151       -0.93786
C         -2.03632        1.85005        0.67932
H         -3.06798        2.07211        0.38582
H         -1.99860        0.84103        1.09826
H         -1.72253        2.56843        1.43958
H         -1.29294        1.17902       -1.13107
N         -1.96716       -1.49695        0.29736
H         -1.17664       -1.43349       -0.34221
C         -3.22957       -1.35592       -0.42352
H         -3.39326       -2.10182       -1.21432
H         -4.06347       -1.41581        0.28187
H         -3.27462       -0.36533       -0.88893
H         -1.91961       -2.40623        0.74446
