35
1msa2tma_08.log	Energy: -635759.3307932
N          3.43274       -0.84378       -0.10089
C          2.72887       -0.57091       -1.34605
H          3.41973       -0.11902       -2.06465
H          2.37266       -1.51337       -1.77864
H          1.87218        0.11381       -1.21893
C          2.57653       -1.53694        0.84686
H          2.23155       -2.48014        0.40634
H          3.14676       -1.78059        1.74941
H          1.69848       -0.93351        1.14112
C          3.94686        0.38816        0.47681
H          4.51266        0.16060        1.38606
H          4.62580        0.87072       -0.23303
H          3.14339        1.10215        0.73343
S         -0.79151        1.61873       -0.06587
O         -0.17277        1.80008       -1.38259
O          0.01793        0.84212        0.90233
O         -2.18720        1.02974       -0.15697
H         -2.07254       -0.44375       -0.04213
C         -1.04350        3.23826        0.64058
H         -1.67425        3.81373       -0.03717
H         -1.52242        3.12178        1.61267
H         -0.06548        3.70866        0.74602
N         -1.92891       -1.52811        0.00812
C         -1.59348       -1.85163        1.41399
H         -0.73561       -1.24035        1.69834
H         -2.44482       -1.59358        2.04540
H         -1.36957       -2.91807        1.50268
C         -3.18524       -2.16339       -0.43683
H         -3.99625       -1.84028        0.21688
H         -3.39772       -1.84621       -1.45835
H         -3.08438       -3.25128       -0.39663
C         -0.79790       -1.82712       -0.90302
H         -1.03601       -1.44426       -1.89612
H          0.08589       -1.31077       -0.52916
H         -0.62933       -2.90681       -0.93632
