33
1msa2eda_14.log	Energy: -655918.9132973
S         -1.76406       -0.98275        0.04649
O         -1.00501       -1.29882       -1.18580
O         -2.78271        0.06723       -0.12099
O         -0.83893       -0.69607        1.19980
C         -2.62266       -2.47764        0.51559
H         -1.88640       -3.27073        0.64843
H         -3.15794       -2.28703        1.44583
H         -3.31858       -2.72855       -0.28529
H          1.19952        2.44469       -1.07445
H          0.22282        0.97233       -1.30010
H         -1.13120        3.08034       -1.64705
H         -1.75055        2.05804       -0.34782
H         -0.33595        4.60042       -0.03083
H         -1.64990        4.03395        0.76139
H          1.69939        1.12346        0.73670
H          0.52358        2.24347        1.30514
C          0.35479        1.86617       -0.68657
C         -0.91817        2.70633       -0.63821
N          0.69794        1.43850        0.69320
N         -0.75827        3.76676        0.36273
H          0.07359        0.63092        0.98165
H          4.38483       -1.39160        0.15071
H          3.56285       -1.09511        1.69118
H          2.38478       -2.77915        0.26032
H          1.36493       -1.40702        0.67396
H          2.47395       -1.97859       -1.93989
H          0.98591       -1.42722       -1.49405
H          4.19390        0.97175        0.56366
H          3.24012        0.53916       -0.70796
C          3.47947       -0.96335        0.60749
C          2.24358       -1.70159        0.09151
N          3.35100        0.47007        0.30393
N          1.98596       -1.35644       -1.30534
