33
1msa2eda_30.log	Energy: -655916.7804616
S         -1.15594        1.40860       -0.06131
O         -2.60136        1.16769       -0.12124
O         -0.40152        0.84776       -1.21738
O         -0.54343        0.95894        1.23950
H         -0.28959       -0.65769        1.36413
C         -0.88354        3.17185       -0.09593
H         -1.40284        3.61043        0.75626
H          0.18916        3.35560       -0.02802
H         -1.28667        3.55652       -1.03303
H         -0.48204       -3.59983        0.81215
H         -1.51694       -2.76782        2.00173
H         -2.68250       -3.03356       -0.11835
H         -2.45027       -1.32125        0.22914
H         -1.80632       -2.47091       -2.08875
H         -1.06669       -1.12487       -1.53685
H          0.64461       -1.84280        2.09770
H          0.78303       -1.55631        0.42640
C         -0.96988       -2.65357        1.06127
C         -1.92672       -2.24408       -0.05495
N          0.09445       -1.63775        1.26686
N         -1.23331       -2.11125       -1.33558
H          2.61036        1.41548       -0.85192
H          4.18866        1.06461       -0.16205
H          3.61136       -0.65899       -1.72223
H          3.66102       -1.35724       -0.09881
H          1.11129       -0.42909       -1.23841
H          1.64900       -1.95279       -1.51005
H          1.56364        0.92810        1.17380
H          2.95377        0.29239        1.83986
C          3.14011        0.74199       -0.16824
C          3.09764       -0.67538       -0.75003
N          2.58064        0.94000        1.15594
N          1.72077       -1.16636       -0.87172
