31
1msa1dma1eda_162.log	Energy: -621167.3401479
S          1.81785       -0.90860       -0.06101
O          3.08756       -1.59122       -0.22592
O          1.07642       -0.50082       -1.25767
O          1.99876        0.35311        0.86602
H          1.72115        1.25594        0.35112
C          0.76385       -1.93132        0.94643
H          0.65843       -2.88684        0.43093
H          1.25234       -2.07446        1.91037
H         -0.20569       -1.44234        1.05794
H         -0.97110        1.25989       -0.93371
H         -2.05952        2.45633       -0.21344
H         -0.26777        3.73456       -1.00267
H          0.04613        3.58332        0.73780
H          1.32285        1.99157       -1.38428
H          2.04331        3.13630       -0.45553
H         -1.65694        0.46960        1.17693
H         -0.13852        0.99600        1.44980
C         -1.08935        1.96158       -0.09026
C         -0.00900        3.02945       -0.20396
N         -1.07568        1.30708        1.21348
N          1.31701        2.42552       -0.46124
N         -2.86367       -1.19481        0.29703
C         -2.30773       -1.80387       -0.90677
C         -3.93908       -0.25728       -0.00293
H         -3.21741       -1.91903        0.91290
H         -1.71609       -1.06397       -1.45476
H         -1.63250       -2.61742       -0.63249
H         -3.07851       -2.20676       -1.58448
H         -3.54377        0.55695       -0.61858
H         -4.77690       -0.71528       -0.55420
H         -4.32277        0.17890        0.92314
