29
1msa2dma_26.log	Energy: -586436.5748887
S         -0.65853        1.40151        0.07035
O         -0.56549        0.60866        1.30366
O         -1.75976        2.34723       -0.03691
O         -0.65324        0.41656       -1.15068
H         -1.09792       -0.56463       -0.88615
C          0.87122        2.27129       -0.17830
H          0.94589        3.00769        0.62316
H          1.70669        1.56426       -0.14222
H          0.81569        2.77136       -1.14560
N         -1.65437       -1.80733       -0.52419
C         -2.91620       -1.53012        0.17966
C         -0.68586       -2.53133        0.31052
H         -1.84738       -2.34199       -1.36715
H         -2.69306       -0.90109        1.04448
H         -3.58541       -0.97965       -0.48429
H         -3.40533       -2.45184        0.51593
H         -0.42313       -1.88981        1.15442
H         -1.09565       -3.47794        0.68287
H          0.21821       -2.72933       -0.26956
N          3.15183       -0.23390       -0.04696
C          2.60169       -0.94325       -1.19133
C          2.66895       -0.74791        1.22693
H          4.16431       -0.27074       -0.07315
H          1.52688       -0.74401       -1.25793
H          3.06207       -0.57280       -2.11121
H          2.75130       -2.03743       -1.14171
H          1.59909       -0.53678        1.32467
H          2.82138       -1.83585        1.34525
H          3.17978       -0.23667        2.04727
