31
1msa1dma1eda_50.log	Energy: -621180.7293143
S          1.86013       -0.01771        0.12384
O          0.84007       -0.34893        1.15663
O          2.28094        1.39271        0.15527
O          1.41541       -0.46249       -1.23925
C          3.29736       -1.01029        0.49482
H          3.65007       -0.73135        1.48800
H          3.00959       -2.06150        0.46835
H          4.05788       -0.79905       -0.25710
H          0.20622        2.08811       -0.54389
H         -0.91144        2.77183       -1.72579
H         -1.53274        3.42701        0.51187
H         -2.81803        2.42043       -0.16438
H         -0.73235        1.17836        1.50649
H         -2.13767        1.77316        2.13452
H         -0.09344        0.25829       -1.68032
H         -1.44205       -0.07164       -0.77240
C         -0.82342        2.04864       -0.91165
C         -1.78605        2.39807        0.21171
N         -1.03110        0.67892       -1.46921
N         -1.69881        1.42495        1.29081
H         -1.61339        0.68816       -2.30198
N         -1.66520       -1.44818        0.06254
C         -1.19935       -2.61688       -0.67967
C         -2.96073       -1.63848        0.70127
H         -0.95493       -1.19845        0.75457
H         -1.88087       -2.81932       -1.51408
H         -0.20227       -2.40888       -1.07689
H         -1.15293       -3.52103       -0.05492
H         -3.72483       -1.81722       -0.06374
H         -2.96865       -2.49317        1.39413
H         -3.21258       -0.72702        1.24707
