26
1msa1a1tma_14.log	Energy: -561776.4369183
S          1.80454       -0.25963       -0.17677
O          3.17573       -0.36885       -0.63285
O          0.74727        0.00653       -1.15368
O          1.70349        0.82611        0.97262
H          1.07113        1.59254        0.68878
C          1.39572       -1.74014        0.72362
H          1.44222       -2.56817        0.01529
H          2.13370       -1.87096        1.51501
H          0.39114       -1.63793        1.13339
N          0.06738        2.68003        0.08359
H         -0.81861        2.77279        0.57007
H         -0.11779        2.26468       -0.82764
H          0.45561        3.60737       -0.05524
N         -2.91784       -0.41831        0.16271
C         -2.39592       -1.66437       -0.37702
H         -2.38062       -2.42757        0.40758
H         -3.05231       -2.01982       -1.17698
H         -1.37726       -1.55170       -0.78997
C         -2.98658        0.60276       -0.86675
H         -3.64834        0.27163       -1.67250
H         -3.40465        1.52397       -0.44722
H         -1.99700        0.82429       -1.30952
C         -2.14444        0.03127        1.30393
H         -2.60235        0.92993        1.73150
H         -2.14572       -0.73999        2.08053
H         -1.09317        0.26343        1.04964
