29
1msa2dma_30.log	Energy: -586438.3843329
S          1.12561       -1.11400        0.00150
O          0.84492       -0.44908        1.29510
O          2.53499       -1.40340       -0.26405
O          0.48622       -0.29958       -1.12371
H          0.69082        1.11048       -0.86434
C          0.21869       -2.64814       -0.02153
H          0.59879       -3.26519        0.79335
H         -0.84259       -2.42752        0.10933
H          0.39718       -3.13104       -0.98243
N         -2.49052       -0.44115       -0.14904
C         -2.60228       -0.08731        1.25181
C         -3.51015        0.15930       -0.98212
H         -1.56155       -0.24283       -0.51059
H         -3.49159       -0.55925        1.68541
H         -1.71965       -0.44294        1.78963
H         -2.69671        1.00312        1.42558
H         -4.49457       -0.24217       -0.71512
H         -3.57157        1.26211       -0.88485
H         -3.32321       -0.08361       -2.03159
N          0.82335        2.15998       -0.53055
C          2.17797        2.27770        0.06230
C         -0.26872        2.44743        0.42794
H          0.74671        2.76288       -1.34756
H          2.23042        1.58390        0.90275
H          2.91466        1.98403       -0.68552
H          2.35189        3.30346        0.39350
H         -0.20700        1.69605        1.21733
H         -0.15785        3.45414        0.83611
H         -1.22592        2.34918       -0.08693
