31
1msa1dma1eda_167.log	Energy: -621159.7535302
S          1.75805       -0.80899        0.04808
O          2.64049        0.26377       -0.36752
O          1.11623       -0.76293        1.35440
O          2.63218       -2.17859        0.00496
H          2.42259       -2.69036        0.79916
C          0.55931       -1.10277       -1.21960
H          0.00464       -0.16940       -1.34189
H          1.09557       -1.36262       -2.13257
H         -0.12796       -1.88972       -0.89553
H         -4.14832       -1.28602        0.33587
H         -2.99676       -2.07212        1.42673
H         -2.77634        0.36889        1.53043
H         -1.29473       -0.38139        0.93766
H         -3.21717        1.09933       -0.68796
H         -1.57491        1.27329       -0.56485
H         -3.00512       -3.10415       -0.77598
H         -2.50912       -1.68218       -1.42994
C         -3.07647       -1.49393        0.49974
C         -2.33656       -0.17126        0.67740
N         -2.47528       -2.25907       -0.59243
N         -2.34298        0.59987       -0.56550
N          0.20525        2.35387       -0.15365
C          0.00253        2.52716        1.27996
C         -0.04734        3.57234       -0.90899
H          1.15708        2.03873       -0.32059
H         -1.06129        2.70855        1.47527
H          0.29265        1.61137        1.79975
H          0.57229        3.37256        1.69948
H         -1.10656        3.84143       -0.82064
H          0.54641        4.43407       -0.56128
H          0.16926        3.40367       -1.96715
