25
1msa1a1eda_39.log	Energy: -571858.2718639
S         -0.91815       -0.60053       -0.02989
O         -1.10598       -0.27450        1.39053
O          0.14327       -1.60045       -0.30139
O         -0.66777        0.64252       -0.86792
H          0.78141        0.69345       -1.20856
C         -2.45550       -1.25635       -0.64462
H         -2.33160       -1.48168       -1.70390
H         -2.67640       -2.16268       -0.07980
H         -3.22301       -0.49478       -0.48519
H          3.57831        1.53267       -0.44653
H          2.03331        2.31412       -0.00226
H          3.06943        0.81322        1.81131
H          1.40065        0.41783        1.39936
H          3.56588       -1.30790        1.20443
H          2.04202       -1.55295        0.59467
H          2.10995        1.12591       -2.23144
H          2.17890       -0.28436       -1.33224
C          2.53083        1.35970       -0.18612
C          2.42811        0.41600        1.01923
N          1.86919        0.69877       -1.34107
N          2.84288       -0.92400        0.61217
N         -3.35182        1.76221        0.47042
H         -3.83754        2.60092        0.76687
H         -2.61376        2.02548       -0.17646
H         -2.88582        1.35373        1.27670
