26
1msa1ma1dma_60.log	Energy: -561775.6227374
S          1.66351       -0.20079       -0.05731
O          3.08717       -0.03403        0.17362
O          1.11418        0.21778       -1.35144
O          0.83845        0.53128        1.08074
H          0.35017        1.36831        0.67741
C          1.22951       -1.89602        0.24655
H          1.80239       -2.49657       -0.46152
H          1.52501       -2.13479        1.26868
H          0.15237       -2.03137        0.09979
N         -2.12498       -1.83664       -0.06806
C         -2.17945       -0.99505       -1.25416
C         -2.32646       -1.09491        1.16715
H         -2.81143       -2.57877       -0.14046
H         -1.31553       -0.32177       -1.26382
H         -2.11327       -1.61606       -2.15108
H         -3.10092       -0.38815       -1.31724
H         -1.48550       -0.40986        1.31938
H         -3.26004       -0.50394        1.17768
H         -2.34628       -1.78687        2.01327
N         -0.35436        2.51425       -0.08663
H          0.12608        3.39971        0.04272
C         -1.79544        2.65532        0.15185
H         -2.27079        3.39384       -0.50298
H         -2.27615        1.68780       -0.00634
H         -1.96107        2.94617        1.19140
H         -0.16321        2.20534       -1.03885
