26
1msa1a1tma_02.log	Energy: -561789.1641112
S         -1.50697       -0.25735       -0.04574
O         -1.82663        0.72227       -1.09597
O         -1.16285        0.32764        1.26826
O         -0.44191       -1.23926       -0.48408
C         -2.96136       -1.26633        0.18868
H         -2.74606       -2.01297        0.95298
H         -3.77124       -0.60982        0.50781
H         -3.20410       -1.74143       -0.76189
N          0.06561        2.85247        0.03915
H          0.04847        3.86585        0.08758
H         -0.37293        2.48823        0.88296
H         -0.56889        2.56046       -0.70374
N          1.96259       -0.40609       -0.02175
C          2.75069       -1.64469       -0.18457
H          2.41191       -2.37715        0.54896
H          2.58328       -2.03927       -1.18741
H          3.81249       -1.43028       -0.03793
C          2.29570        0.61391       -1.04620
H          2.07408        0.20013       -2.03087
H          1.67985        1.49936       -0.85613
H          3.35825        0.86255       -0.97116
C          2.06383        0.14757        1.34892
H          1.43634        1.03617        1.40147
H          1.69318       -0.59461        2.05609
H          3.10806        0.39413        1.55994
H          0.92938       -0.69636       -0.18524
