28
1msa1ma1eda_56.log	Energy: -596519.6730554
S         -1.79612       -0.25540       -0.06156
O         -1.04185       -0.07536       -1.32396
O         -2.07465        1.01083        0.64691
O         -1.13221       -1.26327        0.83818
H          0.23001       -0.57142        1.35257
C         -3.36767       -0.98596       -0.48670
H         -3.89388       -0.29207       -1.14261
H         -3.18115       -1.93177       -0.99548
H         -3.92762       -1.14573        0.43477
H          3.22470       -0.35515        1.26408
H          2.26413       -1.82713        1.49778
H          1.16594       -1.35012       -0.77193
H          2.32632       -0.04527       -0.98503
H          3.00649       -2.88071       -0.76408
H          3.39387       -1.83038       -1.94842
H          1.23433        0.15383        2.50547
H          1.03856        0.87351        0.96356
C          2.28641       -0.85099        1.00471
C          2.17947       -1.02010       -0.50897
N          1.14626       -0.05050        1.51319
N          3.24802       -1.91255       -0.94920
N          0.60329        2.12915       -0.08806
H          0.28324        1.59480       -0.89879
C          1.49953        3.21941       -0.47176
H          1.05496        3.92032       -1.18896
H          1.79639        3.78254        0.41739
H          2.40687        2.80440       -0.92047
H         -0.26492        2.47222        0.32089
