35
1msa2tma_09.log	Energy: -635760.2566959
N          3.22787        0.39774        0.14170
C          2.69755        1.57469       -0.51633
H          2.69616        2.42028        0.18121
H          3.33045        1.84388       -1.36792
H          1.66833        1.41444       -0.89398
C          3.26946       -0.72888       -0.77889
H          3.91535       -0.48411       -1.62811
H          3.69711       -1.60022       -0.27304
H          2.26917       -0.99399       -1.16442
C          2.46751        0.07507        1.33907
H          2.91421       -0.79284        1.83380
H          2.51356        0.91467        2.04175
H          1.40730       -0.15192        1.13271
S         -1.03450       -1.56803       -0.05293
O         -2.27788       -2.07052       -0.64274
O         -1.14790       -1.08087        1.34166
O         -0.37731       -0.49941       -0.91014
H         -0.89629        0.82493       -0.42323
C          0.14062       -2.91198       -0.04402
H         -0.28525       -3.71774        0.55451
H          0.29636       -3.23884       -1.07239
H          1.07285       -2.55661        0.39572
N         -1.35543        1.74518       -0.05966
C         -0.70796        2.07710        1.23060
H         -0.79954        1.20448        1.87955
H          0.34728        2.28393        1.05024
H         -1.19464        2.95248        1.66896
C         -1.14128        2.78387       -1.08776
H         -0.06964        2.93206       -1.22581
H         -1.58212        2.44436       -2.02576
H         -1.60941        3.71952       -0.77095
C         -2.79585        1.43431        0.12141
H         -3.19536        1.06127       -0.82237
H         -2.88218        0.65031        0.87423
H         -3.32429        2.33898        0.43313
