28
1msa1ma1eda_126.log	Energy: -596512.7602686
S         -0.33246        1.08544        0.23714
O          0.06389        1.43957        1.60277
O         -0.47938       -0.37744        0.00073
O          0.57774        1.67356       -0.81466
C         -1.92971        1.81767       -0.07066
H         -1.83708        2.89685        0.05258
H         -2.23858        1.56540       -1.08520
H         -2.62974        1.40686        0.65825
H          4.08619       -0.95775       -0.80495
H          3.70987        0.71415       -0.29594
H          3.49451       -1.07868        1.54741
H          2.06145       -0.07694        1.32092
H          2.18358       -2.85635        1.02716
H          0.90314       -1.85820        0.68286
H          2.59364       -0.14823       -2.41049
H          1.69812       -1.10899       -1.36698
C          3.30372       -0.28937       -0.43635
C          2.68244       -0.84732        0.85202
N          2.23099       -0.22963       -1.46447
N          1.89269       -2.03104        0.52223
H          1.54397        0.58723       -1.26071
N         -3.16638       -1.82099        0.31485
H         -3.56925       -1.68097        1.23421
C         -4.00961       -1.24309       -0.72172
H         -4.21375       -0.16422       -0.61384
H         -3.53131       -1.39220       -1.69442
H         -4.97328       -1.76157       -0.75095
H         -2.24227       -1.39470        0.30715
