31
1msa1dma1eda_35.log	Energy: -621181.3882532
S         -1.69579       -0.42636       -0.10853
O         -0.90044       -1.23114       -1.07214
O         -2.21653        0.83356       -0.67641
O         -0.96137       -0.22090        1.17783
C         -3.12211       -1.41948        0.30721
H         -3.67550       -1.61282       -0.61208
H         -2.77581       -2.35282        0.75162
H         -3.73321       -0.85734        1.01355
H          2.16845        2.96345        0.87444
H          2.79938        1.80691       -0.32415
H          1.12807        3.25085       -1.39683
H          0.45769        1.62616       -1.27859
H         -0.53520        3.96005       -0.00170
H         -1.21598        2.44814       -0.11457
H          1.94838        0.98455        2.00367
H          0.46347        0.95377        1.24876
C          1.91099        2.11412        0.23734
C          0.75642        2.50118       -0.68734
N          1.49419        0.97527        1.09454
N         -0.36760        2.96915        0.10526
H          1.70232        0.01398        0.58978
N          1.80730       -1.38481       -0.16347
C          1.72401       -2.42012        0.86617
C          2.88952       -1.60280       -1.11732
H          0.90165       -1.36988       -0.65323
H          2.62703       -2.40450        1.48769
H          0.85202       -2.21431        1.49238
H          1.61992       -3.42567        0.43569
H          3.85755       -1.52852       -0.60955
H          2.83065       -2.58941       -1.59849
H          2.84828       -0.83770       -1.89690
