33
1msa2eda_60.log	Energy: -655916.3053240
S          1.85288       -0.62502       -0.05210
O          1.27465       -1.16905        1.19209
O          2.33734        0.76648        0.04993
O          0.92332       -0.80087       -1.22751
H         -0.16482        0.32622       -1.46723
C          3.26779       -1.63935       -0.44956
H          3.97725       -1.55997        0.37457
H          2.92969       -2.66889       -0.56831
H          3.70872       -1.26602       -1.37385
H         -4.14855       -1.64624        0.18420
H         -3.41363       -1.56388       -1.42577
H         -2.10198       -2.98790        0.16348
H         -1.15218       -1.64820       -0.46818
H         -2.12644       -1.91429        2.24113
H         -0.70368       -1.31905        1.65546
H         -4.07884        0.63247       -0.43440
H         -2.88715        0.38364        0.67664
C         -3.28061       -1.27192       -0.37840
C         -1.99846       -1.89381        0.18093
N         -3.17557        0.19378       -0.28641
N         -1.71212       -1.35196        1.50686
H         -0.35075        1.03865        0.89845
H         -1.45568        2.41493        0.97693
H         -0.80433        3.21898       -1.17936
H          0.76346        2.37611       -1.08828
H         -1.78769        0.83217       -1.19562
H         -0.93575        1.33191       -2.57916
H          0.34338        2.98877        2.32491
H          1.44478        2.50212        1.21596
C         -0.45125        2.10836        0.66272
C         -0.29877        2.31047       -0.84524
N          0.53397        2.94502        1.33027
N         -0.84867        1.13799       -1.58454
