28
1msa1ma1eda_132.log	Energy: -596513.1275192
S         -0.14789       -1.44877       -0.07511
O          1.33985       -1.70601       -0.06640
O         -0.56909       -0.67838       -1.26232
O         -0.56800       -0.84381        1.21007
C         -0.90851       -3.05502       -0.19728
H         -0.57635       -3.51945       -1.12572
H         -0.60426       -3.64736        0.66558
H         -1.98890       -2.90701       -0.20404
H          3.08505        2.28556        0.63381
H          3.69640        0.84482       -0.22563
H          2.21907        2.34648       -1.67656
H          1.63059        0.68381       -1.54038
H          0.30656        3.01463       -0.59250
H         -0.23775        1.45121       -0.70247
H          2.63788        0.39328        2.01284
H          1.19499        0.88892        1.31441
C          2.80130        1.35323        0.13840
C          1.78990        1.61317       -0.98565
N          2.13002        0.48356        1.13711
N          0.52834        2.04787       -0.39843
H          1.92375       -0.48924        0.71658
N         -2.96419        0.94371        0.13917
H         -2.31892        0.52155        0.80120
C         -3.04665        2.38491        0.31266
H         -2.08684        2.92564        0.23195
H         -3.73107        2.80682       -0.43028
H         -3.46444        2.60957        1.29898
H         -2.61693        0.69287       -0.78042
