23
1msa1a1dma_11.log	Energy: -537118.7524134
S          0.81084       -0.35210       -0.08836
O          0.10172       -0.59900       -1.33431
O          0.97626        1.03571        0.35101
O          2.24319       -1.02818       -0.14944
H          2.97470       -0.30309       -0.12178
C          0.02482       -1.28513        1.20000
H         -1.01455       -0.93720        1.22737
H          0.07237       -2.34017        0.92878
H          0.54875       -1.09557        2.13639
N         -2.70083        0.10570       -0.01734
C         -2.61219        1.53776        0.22604
C         -4.06690       -0.35547       -0.19474
H         -2.14304       -0.13130       -0.83322
H         -3.08744        1.77267        1.18535
H         -1.56165        1.83425        0.28454
H         -3.10690        2.14532       -0.55193
H         -4.62354       -0.21266        0.73832
H         -4.61176        0.17630       -0.99488
H         -4.07014       -1.42422       -0.42655
N          3.94534        0.97966       -0.04348
H          4.36932        1.24144       -0.92760
H          4.66985        0.97163        0.66665
H          3.25529        1.68756        0.20227
