33
1msa2eda_77.log	Energy: -655912.2188882
S          2.28593       -0.51023       -0.04096
O          2.08946       -0.57613        1.42878
O          3.01718        0.67893       -0.50402
O          0.96434       -0.68253       -0.74964
C          3.25378       -1.94026       -0.49953
H          4.21976       -1.86057        0.00000
H          2.72551       -2.83705       -0.17568
H          3.38131       -1.93384       -1.58229
H         -0.33133        2.76720        1.68617
H          1.21791        2.06631        1.14908
H          0.49717        3.62327       -0.54815
H          0.40374        1.97925       -1.17620
H         -1.87400        3.63210       -0.34910
H         -1.61880        2.89957       -1.78144
H         -0.05003        0.30376        1.88767
H         -1.46271        0.70286        1.00274
C          0.14887        2.13305        0.93434
C         -0.05585        2.67729       -0.46971
N         -0.41028        0.76307        1.04966
N         -1.48269        2.80083       -0.78156
H         -0.01460        0.17338        0.26495
H         -3.82334       -0.55536       -1.31437
H         -2.19140        0.13227       -1.32473
H         -2.10842       -2.32148       -1.45765
H         -1.34663       -1.75838        0.01929
H         -3.99735       -2.99184       -0.16431
H         -2.73936       -3.41249        0.78800
H         -3.62673        1.08716        0.40403
H         -3.66267       -0.39158        1.14931
C         -2.89410       -0.46139       -0.73117
C         -2.31237       -1.84918       -0.48679
N         -3.11705        0.22221        0.54832
N         -3.21609       -2.62325        0.36847
