25
1msa1a1eda_33.log	Energy: -571859.3790592
S         -1.75869       -0.12830        0.06485
O         -1.31232       -1.28328       -0.73985
O         -1.98513        1.10062       -0.76511
O         -0.85842        0.17187        1.21323
H          0.39102        1.80641        0.64085
C         -3.34908       -0.55293        0.74981
H         -4.03214       -0.75212       -0.07605
H         -3.22136       -1.44282        1.36647
H         -3.70037        0.28667        1.34945
H          4.10618       -0.78471       -0.48612
H          3.75370       -1.39132        1.11949
H          2.07695       -2.25804       -0.36042
H          1.29013       -1.09175        0.70647
H          2.06648       -0.53874       -2.06423
H          0.55504       -0.77158       -1.45274
H          3.26979        1.33663        0.15247
H          2.82289        0.78363        1.63713
C          3.39211       -0.70761        0.34395
C          2.01530       -1.19053       -0.10837
N          3.47342        0.65053        0.86954
N          1.48845       -0.40366       -1.23840
N          0.49459        1.99633       -0.36092
H         -0.49525        1.91580       -0.71718
H          1.03321        1.14897       -0.77544
H          0.92458        2.89619       -0.54783
