23
1msa2ma_06.log	Energy: -537125.3352889
S         -1.35353       -0.18780        0.03984
O         -1.28577       -1.55504        0.57093
O         -0.60169        0.03235       -1.21883
O         -0.96861        0.85503        1.06510
H          0.50287        1.21455        0.87132
C         -3.07205        0.15076       -0.31330
H         -3.40954       -0.57804       -1.05078
H         -3.63576        0.04628        0.61394
H         -3.15546        1.16395       -0.70663
N          1.53304        1.44885        0.63164
H          1.94261        1.96330        1.40765
C          1.58112        2.22014       -0.63009
H          2.61755        2.37896       -0.93308
H          1.03723        1.64090       -1.37743
H          1.08361        3.17989       -0.48790
H          2.05465        0.53314        0.52046
N          2.89812       -1.00720        0.21246
H          3.68143       -0.89105       -0.42437
C          1.91638       -1.95026       -0.36494
H          2.36216       -2.91736       -0.62470
H          1.10011       -2.10543        0.34289
H          1.46645       -1.50189       -1.25215
H          3.28640       -1.39648        1.06703
