31
1msa1dma1eda_149.log	Energy: -621165.8134349
S         -0.32636       -0.29824        0.32627
O         -0.61920       -1.32884       -0.65548
O         -0.34533        1.10351       -0.10712
O          1.07746       -0.57576        0.99656
H          1.75188        0.22933        0.76724
C         -1.44025       -0.49126        1.69518
H         -2.45599       -0.32610        1.30998
H         -1.32702       -1.50487        2.08093
H         -1.18228        0.24671        2.45470
H          4.83458       -0.02913        0.66169
H          5.32428       -0.10112       -1.03245
H          4.24135        1.97697       -0.83871
H          3.04230        0.91500       -1.60586
H          3.08014        1.75558        1.20709
H          1.91167        2.03115        0.08494
H          4.30426       -2.16887       -0.48168
H          2.89051       -1.45081       -0.06042
C          4.45125       -0.12298       -0.37152
C          3.59884        1.10188       -0.68389
N          3.72244       -1.35426       -0.63513
N          2.61820        1.36344        0.39063
N         -4.23945        0.15092        0.02477
C         -4.11323       -0.89123       -0.98797
C         -3.85891        1.46695       -0.47399
H         -5.19424        0.17994        0.36509
H         -3.05764       -1.02358       -1.24457
H         -4.47921       -1.83944       -0.58430
H         -4.66760       -0.66654       -1.91529
H         -2.79070        1.47060       -0.71288
H         -4.41406        1.76697       -1.37944
H         -4.02842        2.21785        0.30315
