28
1msa1ma1eda_112.log	Energy: -596512.8688447
S          0.60643       -0.82653       -0.12783
O          0.55588       -0.29872        1.25226
O          0.71151        0.20967       -1.17322
O         -0.57176       -1.74935       -0.37983
H         -1.78085       -1.24750        0.24268
C          2.04312       -1.86925       -0.25949
H          2.91947       -1.22287       -0.15628
H          1.99615       -2.61846        0.53073
H          2.02898       -2.33987       -1.24293
H         -3.28598        0.93417        1.71720
H         -1.51263        0.65701        1.61996
H         -2.29584        2.47746        0.04327
H         -1.50126        1.13044       -0.76881
H         -4.35272        1.74710       -0.82476
H         -3.38117        1.18006       -2.01367
H         -2.97272       -1.38970        1.48942
H         -3.43844       -0.80351       -0.01383
C         -2.45988        0.60463        1.07943
C         -2.39973        1.41676       -0.21281
N         -2.69727       -0.81412        0.69846
N         -3.58421        1.11672       -1.02374
N          3.62617        1.08410       -0.50735
H          4.30976        1.57786       -1.06995
C          3.43213        1.74380        0.78226
H          3.15051        2.80643        0.71412
H          2.64101        1.22242        1.32821
H          4.35228        1.67452        1.37160
H          2.74890        1.06348       -1.02329
