28
1msa1ma1eda_184.log	Energy: -596500.2803559
S         -1.91747        0.11172       -0.07156
O         -1.51908        1.51111       -0.01320
O         -1.55675       -0.70448       -1.21418
O         -3.54358        0.09733        0.03665
H         -3.84788        1.01547        0.00267
C         -1.47836       -0.73412        1.41850
H         -0.37962       -0.83234        1.43979
H         -1.83504       -0.14213        2.26136
H         -1.95678       -1.71382        1.39457
H          3.43059       -1.49067        0.21140
H          2.53263       -2.80753        0.97456
H          1.94943       -2.82856       -1.32754
H          0.54573       -2.23613       -0.43687
H          2.24197       -0.71398       -2.22130
H          0.61203       -0.67828       -2.01327
H          2.26868       -0.98315        2.37375
H          1.85085        0.05306        1.17599
C          2.42074       -1.81990        0.51136
C          1.56492       -1.98004       -0.74174
N          1.79129       -0.92451        1.48066
N          1.50150       -0.74461       -1.52923
N          1.62641        1.85990        0.19014
H          1.58132        1.16812       -0.56097
C          2.62363        2.88510       -0.09056
H          2.44726        3.45306       -1.01726
H          2.66653        3.59946        0.73734
H          3.61093        2.41865       -0.16849
H          0.69613        2.25791        0.26882
