23
1msa2ma_39.log	Energy: -537105.0957146
S         -0.09283        0.85253       -0.07676
O          0.14696       -0.05415       -1.18563
O         -1.24690        1.73963       -0.10524
O          1.21925        1.81482        0.05244
H          0.91615        2.72994       -0.03332
C         -0.01073       -0.04371        1.44481
H         -0.86500       -0.72957        1.40650
H          0.93778       -0.59267        1.44592
H         -0.09120        0.66885        2.26532
N          2.54009       -1.65192        0.13587
H          2.83922       -2.61768        0.21302
C          3.67421       -0.77705       -0.15946
H          4.21785       -1.02973       -1.08154
H          3.31297        0.25038       -0.25141
H          4.38317       -0.80641        0.67309
H          1.85569       -1.60105       -0.61374
N         -2.51505       -1.59944       -0.03934
H         -1.97980       -1.46614       -0.89246
C         -3.71763       -0.76497       -0.04953
H         -4.42186       -0.99069       -0.86332
H         -4.24596       -0.88467        0.90080
H         -3.42013        0.28309       -0.13441
H         -2.75838       -2.58265        0.01059
