33
1msa2eda_81.log	Energy: -655912.0180350
S          1.92673       -0.51387       -0.07376
O          2.52135        0.76981       -0.49087
O          1.13077       -1.19465       -1.11253
O          1.14700       -0.35298        1.21252
H          0.41341        0.96918        1.28949
C          3.26645       -1.61376        0.35006
H          3.87019       -1.13935        1.12362
H          2.84036       -2.55056        0.70939
H          3.85515       -1.78004       -0.55241
H         -0.14915        3.79037        0.38843
H          1.28458        2.76564        0.02160
H         -0.42830        2.89212       -1.88111
H         -0.00522        1.27107       -1.34180
H         -2.56285        2.56259       -1.03096
H         -2.14874        0.94132       -1.06759
H          0.04916        2.35734        2.22425
H         -1.13746        1.70222        1.22266
C          0.20362        2.77895        0.16762
C         -0.52142        2.18902       -1.04638
N         -0.13073        1.91090        1.32934
N         -1.90423        1.87000       -0.69722
H         -1.05284       -1.51597        1.04019
H         -2.37045       -2.59895        1.51791
H         -1.92073       -3.04039       -0.76172
H         -3.46365       -2.16173       -0.70359
H         -0.84759       -1.05332       -1.42775
H         -2.15224       -1.20741       -2.39563
H         -2.84131       -0.41192        2.33098
H         -2.80951        0.21865        0.81061
C         -2.12669       -1.71999        0.91056
C         -2.38351       -2.06513       -0.55000
N         -2.99114       -0.62179        1.35042
N         -1.87020       -1.01352       -1.43977
