26
1msa1a1tma_11.log	Energy: -561776.4929436
S         -1.63197       -0.38553       -0.06370
O         -0.89232       -1.57839        0.30799
O         -1.34654        0.24401       -1.35307
O         -1.49732        0.70894        1.07094
H         -0.94720        1.51762        0.72094
C         -3.37046       -0.75133        0.03259
H         -3.57417       -1.52843       -0.70487
H         -3.58833       -1.11076        1.03814
H         -3.93106        0.15511       -0.19318
N         -0.09375        2.64873        0.02236
H         -0.43099        3.60293        0.09553
H         -0.14349        2.35810       -0.95238
H          0.88165        2.62950        0.30400
N          2.98385       -0.24625        0.00692
C          2.43810        0.30636        1.23290
H          2.89707       -0.18360        2.09673
H          2.67952        1.37463        1.29634
H          1.34243        0.17904        1.31532
C          2.43553        0.42051       -1.16048
H          2.66798        1.49150       -1.11590
H          2.90028        0.02060       -2.06658
H          1.34078        0.29285       -1.25767
C          2.75524       -1.68385       -0.06085
H          3.21872       -2.08487       -0.96738
H          3.22439       -2.16837        0.80091
H          1.68222       -1.94142       -0.06753
