29
1msa2dma_32.log	Energy: -586436.9862148
S         -1.93159       -0.34133        0.10493
O         -2.54649       -0.16937        1.42219
O         -0.53693       -0.88473        0.14823
O         -1.95761        0.90668       -0.73916
H         -0.46850        1.56277       -0.62759
C         -2.90300       -1.53737       -0.79505
H         -2.90205       -2.46673       -0.22488
H         -3.91592       -1.14483       -0.88740
H         -2.45363       -1.68450       -1.77702
N          0.53419        1.57066       -0.27111
C          0.54930        2.22337        1.05545
C          1.49060        2.11316       -1.24911
H          0.64701        0.54754       -0.13500
H          0.30763        3.28025        0.93533
H         -0.20416        1.73995        1.67922
H          1.53649        2.11141        1.50669
H          1.27481        3.16947       -1.41695
H          2.50708        1.99998       -0.86789
H          1.38636        1.56450       -2.18525
N          3.28870       -1.62835        0.24020
C          2.68409       -1.41507       -1.06649
C          2.82422       -0.67803        1.23704
H          3.08204       -2.56935        0.55582
H          3.04362       -0.46136       -1.47429
H          3.01081       -2.19862       -1.75516
H          1.58163       -1.40248       -1.04831
H          3.14966        0.32993        0.94403
H          1.72917       -0.67546        1.37311
H          3.29028       -0.89438        2.20193
