23
1msa2ma_40.log	Energy: -537106.6856184
S         -1.55373        0.04033       -0.16045
O         -0.63309        0.14513       -1.27640
O         -2.97591        0.27024       -0.35654
O         -1.06132        1.11751        0.96074
H         -1.83019        1.65160        1.20643
C         -1.26511       -1.48541        0.68847
H         -1.53729       -2.27936       -0.00930
H         -0.19259       -1.53303        0.94154
H         -1.90515       -1.51246        1.57037
N          1.92976       -1.52130        0.76856
H          2.16365       -0.54804        0.54951
C          2.04478       -2.31287       -0.45487
H          3.04127       -2.29080       -0.91979
H          1.78975       -3.35829       -0.25154
H          1.32749       -1.93192       -1.18889
H          2.58566       -1.84970        1.46914
N          2.20319        1.25673       -0.51970
H          2.89260        1.38519       -1.25217
C          2.11472        2.44605        0.32495
H          1.85490        3.36889       -0.21411
H          1.35329        2.27675        1.09045
H          3.07078        2.60590        0.83221
H          1.31109        1.07229       -0.97245
