23
1msa2ma_41.log	Energy: -537105.5767289
S          0.63604       -1.04962       -0.08474
O         -0.04479       -0.45459       -1.22209
O          2.09030       -1.01997       -0.02161
O          0.20042       -2.61695       -0.02191
H          1.00665       -3.14628       -0.10354
C         -0.07842       -0.43747        1.41220
H          0.13316        0.63799        1.40692
H         -1.15825       -0.61366        1.35203
H          0.39100       -0.94803        2.25243
N         -2.94121       -0.17930       -0.04849
H         -2.37401       -0.48129       -0.83540
C         -2.93824        1.27915        0.04317
H         -3.32850        1.79449       -0.84682
H         -3.53502        1.59048        0.90576
H         -1.91307        1.62383        0.21136
H         -3.88008       -0.53419       -0.18960
N          0.64744        2.44521       -0.05175
H          0.38288        1.92949       -0.88662
C          2.10262        2.59225        0.01897
H          2.54661        3.13476       -0.82780
H          2.36694        3.12036        0.93966
H          2.56026        1.60035        0.06176
H          0.19789        3.35288       -0.10387
