28
1msa1ma1eda_17.log	Energy: -596523.7171801
S         -1.74500        0.16188       -0.00978
O         -2.27888       -1.08577       -0.56799
O         -0.73412        0.82451       -0.88326
O         -1.21525        0.00405        1.38767
H          0.33794       -0.41922        1.42450
C         -3.10314        1.31145        0.14196
H         -3.52384        1.46685       -0.85180
H         -3.84526        0.87162        0.80857
H         -2.72153        2.24639        0.55253
H          2.82305       -1.94331        0.69410
H          1.48260       -2.65711        1.62850
H          1.32852       -3.25776       -0.72223
H         -0.07455       -2.30432       -0.24291
H          1.33952       -1.78083       -2.39786
H          0.60402       -0.59335       -1.55621
H          1.77049       -0.42988        2.30706
H          1.76724        0.21484        0.74238
C          1.74229       -1.92368        0.85983
C          1.00547       -2.25159       -0.43577
N          1.38982       -0.57394        1.37453
N          1.33373       -1.30642       -1.50301
N          2.08918        1.46198       -0.34061
H          2.52422        0.97598       -1.12040
C          2.74829        2.73267       -0.04465
H          2.72047        3.44627       -0.87770
H          2.26300        3.19977        0.81662
H          3.79499        2.55439        0.21712
H          1.10857        1.59278       -0.60173
