34
1msa1eda1tma_40.log	Energy: -645834.4799812
S          0.36343        1.60964        0.01917
O          1.35309        2.68700        0.09973
O          0.19173        0.83791        1.27938
O          0.65414        0.64402       -1.11955
H          1.56616       -0.37965       -0.61176
C         -1.21282        2.32297       -0.39852
H         -1.48440        3.00685        0.40660
H         -1.08941        2.86781       -1.33500
H         -1.95851        1.53083       -0.50978
H         -4.12496       -2.12717       -0.17970
H         -3.30274       -1.70456       -1.69440
H         -1.71913       -2.56070        0.00223
H         -1.34870       -0.89813       -0.48037
H         -2.25668       -1.76711        2.11906
H         -1.38764       -0.41688        1.67127
H         -4.80449        0.07188       -0.98359
H         -3.92905        0.23506        0.40030
C         -3.42157       -1.41393       -0.64396
C         -2.07051       -1.51816        0.06267
N         -3.88003       -0.03044       -0.58076
N         -2.16339       -1.02930        1.43434
N          2.26758       -1.11493       -0.18606
C          2.96360       -1.76283       -1.31477
H          2.22534       -2.24467       -1.95698
H          3.49120       -0.99876       -1.88691
H          3.67375       -2.50531       -0.94032
C          3.19649       -0.34280        0.67471
H          3.67208        0.43096        0.07101
H          2.61361        0.13695        1.46180
H          3.94666       -1.01726        1.09665
C          1.45717       -2.06600        0.60658
H          0.86177       -1.48510        1.31278
H          0.78997       -2.60656       -0.06597
H          2.11544       -2.76707        1.12698
