28
1msa1ma1eda_108.log	Energy: -596514.3447727
S         -0.47081       -0.85883       -0.21994
O         -0.41695        0.18268       -1.26674
O         -0.63193       -0.31487        1.15120
O          0.73545       -1.76907       -0.27126
H          1.75912       -1.07066        0.65137
C         -1.87765       -1.89004       -0.56986
H         -2.76947       -1.26621       -0.46204
H         -1.77121       -2.27552       -1.58395
H         -1.88952       -2.70287        0.15656
H          4.08433        0.82495        0.93303
H          4.02644       -0.65082       -0.07062
H          3.53563        1.48846       -1.37612
H          2.23441        0.29199       -1.45479
H          2.05613        2.88060       -0.31524
H          0.86784        1.74724       -0.57130
H          2.71179       -0.77320        2.05999
H          1.72328        0.41502        1.41379
C          3.44175        0.18243        0.32493
C          2.75933        0.98511       -0.79016
N          2.37039       -0.36068        1.19620
N          1.80107        1.90994       -0.19709
N         -3.54577        0.70072        0.79683
H         -4.24330        0.92792        1.49645
C         -3.34308        1.81767       -0.12348
H         -3.04860        2.76205        0.36080
H         -2.55902        1.54789       -0.83621
H         -4.26376        1.99914       -0.68719
H         -2.67551        0.48446        1.27867
