34
1msa1eda1tma_22.log	Energy: -645839.5380526
S          2.07134       -0.61251       -0.08047
O          3.43507       -0.19232        0.24313
O          1.56261       -0.18077       -1.40300
O          1.07072       -0.22494        0.99182
C          2.05174       -2.40065       -0.07824
H          1.03872       -2.73908       -0.29880
H          2.74614       -2.74234       -0.84641
H          2.37194       -2.74579        0.90528
H         -3.89852       -2.23875        0.07794
H         -3.26251       -1.94690       -1.54652
H         -1.51386       -2.75613       -0.01834
H         -1.13423       -1.14813       -0.63896
H         -2.09792       -1.73593        2.05516
H         -0.72592       -0.96338        1.57536
H         -4.61478       -0.09437       -0.86370
H         -3.68021        0.13915        0.46356
C         -3.23913       -1.58129       -0.51455
C         -1.81554       -1.69706        0.01954
N         -3.67253       -0.18403       -0.49958
N         -1.71022       -1.11045        1.35565
N         -0.20629        1.90175        0.05992
C          0.95896        2.80730       -0.08774
H          1.52603        2.80250        0.84371
H          1.58899        2.42171       -0.88999
H          0.60574        3.81536       -0.31828
C         -0.93180        1.73200       -1.22471
H         -0.25237        1.23855       -1.92031
H         -1.82262        1.11871       -1.05955
H         -1.22265        2.71941       -1.59433
C         -1.10529        2.31044        1.16174
H         -1.83756        1.51496        1.31062
H         -0.51397        2.42895        2.07067
H         -1.59349        3.25350        0.90414
H          0.21408        0.96712        0.35246
