28
1msa1ma1eda_09.log	Energy: -596524.0498931
S         -1.48614       -0.84604       -0.06591
O         -2.40521        0.00179       -0.83925
O         -1.08678       -0.25970        1.24293
O         -0.27350       -1.26432       -0.84986
C         -2.34982       -2.36634        0.29891
H         -3.24839       -2.11306        0.86220
H         -2.61148       -2.84230       -0.64632
H         -1.69397       -3.00797        0.88748
H          2.67291        0.95722        1.29854
H          1.32213       -0.19927        1.45494
H          3.50281       -1.41758        1.23092
H          2.42500       -1.73261       -0.13499
H          4.79728       -0.01897       -0.17984
H          4.34269       -1.17807       -1.23978
H          0.84690        1.57603       -0.11336
H          2.15808        0.97132       -1.09365
C          2.11389        0.16215        0.79459
C          3.03621       -0.96350        0.34687
N          1.44997        0.74094       -0.39479
N          3.99611       -0.44644       -0.63153
H          0.79459        0.00239       -0.77318
N         -0.40182        2.56923        0.57337
H         -0.86517        1.79217        1.05403
C         -1.31030        3.13466       -0.43513
H         -2.19035        3.61962        0.00378
H         -0.77421        3.86884       -1.04395
H         -1.66233        2.32297       -1.07572
H         -0.16410        3.26594        1.27208
