33
1msa2eda_167.log	Energy: -655890.9733440
S          2.08681       -0.55148       -0.03612
O          0.88335       -1.36782       -0.02119
O          2.42894        0.18530       -1.24164
O          3.35140       -1.51411        0.31124
H          3.84103       -1.67317       -0.50902
C          2.10504        0.49067        1.39074
H          1.20899        1.13326        1.33735
H          2.06218       -0.15197        2.27098
H          3.02522        1.07434        1.37275
H         -2.12895        2.98868       -0.06736
H         -0.73444        3.96847        0.42244
H         -0.48238        3.23482       -1.87556
H          0.78365        2.53086       -0.85450
H         -0.20904        0.88981       -2.31875
H         -0.62089        0.50788       -0.80194
H         -1.04799        2.51737        2.17191
H         -1.26077        1.18782        1.25008
C         -1.05444        2.95186        0.16845
C         -0.29657        2.50957       -1.07527
N         -0.75263        2.07756        1.30665
N         -0.76545        1.20279       -1.52997
H         -3.28034       -2.38811        1.14655
H         -3.90849       -0.73231        1.30798
H         -4.07298       -1.48082       -0.98597
H         -2.92674       -0.12951       -0.87609
H         -2.21321       -2.09834       -2.23043
H         -1.14854       -1.76687       -1.04976
H         -1.85472       -0.95078        2.48981
H         -1.04516       -1.38397        1.14945
C         -3.08891       -1.33367        0.89859
C         -3.08451       -1.18697       -0.61615
N         -1.83580       -0.83549        1.48117
N         -2.09878       -2.08337       -1.22318
