32
1msa1dma1tma_20.log	Energy: -611100.6597649
S         -2.74289        0.22502       -0.01378
O         -3.02276        0.74238       -1.35794
O         -1.95522        1.13092        0.85399
O         -2.10125       -1.14828       -0.04451
C         -4.31482       -0.04066        0.79209
H         -4.90386       -0.72015        0.17584
H         -4.13429       -0.46847        1.77821
H         -4.81073        0.92678        0.87618
N          4.05907        0.26999       -0.35722
C          4.81660       -0.55293        0.57608
C          4.05020        1.67891        0.01630
H          4.45456        0.17334       -1.28651
H          4.31434       -0.55392        1.55001
H          4.85145       -1.58524        0.21692
H          5.85000       -0.20327        0.73435
H          3.52602        1.80009        0.97069
H          5.05782        2.11013        0.13313
H          3.50859        2.25990       -0.73491
N          0.45484       -0.69755       -0.13547
C          0.89031       -0.24624        1.20646
H          0.25016        0.58750        1.49856
H          0.75597       -1.06762        1.91209
H          1.94198        0.04144        1.15119
C          1.16945       -1.91439       -0.57269
H          1.01318       -2.70094        0.16701
H          0.75927       -2.23647       -1.53083
H          2.23317       -1.68330       -0.66851
C          0.57105        0.39343       -1.13640
H          0.11265        0.05864       -2.06777
H          0.01855        1.25649       -0.76389
H          1.62954        0.62119       -1.27666
H         -0.60235       -0.93253       -0.06923
