31
1msa1dma1eda_01.log	Energy: -621184.8721751
S         -1.58601       -0.98613       -0.06467
O         -1.05067       -0.78866        1.30201
O         -0.53487       -1.52250       -0.99289
O         -2.26108        0.21152       -0.61380
C         -2.82440       -2.26768        0.03793
H         -2.35236       -3.17145        0.42331
H         -3.60588       -1.92236        0.71517
H         -3.22729       -2.43554       -0.96098
H          2.61533        0.61606        1.15030
H          1.20523       -0.45829        1.37839
H          3.33155       -1.78048        1.41427
H          2.30012       -2.21974        0.04867
H          4.74188       -0.61161       -0.09626
H          4.30272       -1.89636       -1.00591
H          0.89827        1.15791       -0.44660
H          2.21425        0.33236       -1.25244
C          2.04063       -0.21000        0.71914
C          2.92564       -1.42110        0.45948
N          1.46307        0.24716       -0.56519
N          3.95020       -1.07531       -0.52914
H          0.76219       -0.47210       -0.89183
N         -0.26928        2.34496       -0.11969
C         -0.19445        3.59075       -0.87314
C         -0.34370        2.55065        1.32641
H         -1.09682        1.80933       -0.40285
H          0.74730        4.10442       -0.64939
H         -0.22248        3.37581       -1.94465
H         -1.01984        4.27852       -0.63572
H          0.60010        2.97324        1.69105
H         -1.15546        3.23696        1.60915
H         -0.51994        1.58525        1.80763
