33
1msa2eda_05.log	Energy: -655920.2174314
S         -1.47104       -1.31180       -0.04439
O         -2.31142       -0.31570       -0.74250
O         -0.94576       -0.83074        1.25842
O         -0.37134       -1.85227       -0.90729
H          0.90821       -0.75406       -0.88547
C         -2.52173       -2.70975        0.31468
H         -2.90931       -3.09677       -0.62790
H         -1.92490       -3.46427        0.82719
H         -3.33520       -2.36250        0.95210
H          2.48782        0.90542        0.98105
H          1.36335       -0.41970        1.33529
H          3.74144       -1.19881        1.55136
H          2.87318       -2.05773        0.27483
H          4.84397        0.06804       -0.14759
H          4.79926       -1.42902       -0.80341
H          0.89638        0.91215       -0.80505
H          2.29352        0.10173       -1.37326
C          2.14372       -0.07863        0.65365
C          3.28422       -1.08373        0.55977
N          1.53434        0.06843       -0.68676
N          4.22246       -0.66062       -0.48301
H         -2.09853        2.40539        0.73289
H         -1.23970        3.85233        1.26947
H         -1.42910        3.80913       -1.14728
H          0.27297        3.74348       -0.64067
H         -1.23766        1.29959       -1.31292
H         -0.32410        2.12466       -2.39584
H         -0.11980        2.33639        2.46672
H         -0.41230        1.09778        1.45541
C         -1.11117        2.88939        0.76318
C         -0.66639        3.17873       -0.66612
N         -0.12994        2.07875        1.48660
N         -0.43493        1.93189       -1.40494
