31
1msa1dma1eda_164.log	Energy: -621159.3236397
S         -2.15495       -0.14811        0.05500
O         -1.81583       -1.32861       -0.73294
O         -1.73036       -0.05348        1.43488
O         -3.78102       -0.03707        0.01480
H         -4.12271       -0.87052       -0.33918
C         -1.70339        1.32696       -0.80692
H         -2.03496        1.23504       -1.84086
H         -2.18889        2.16583       -0.30679
H         -0.60335        1.41054       -0.72548
H          3.43549       -2.47415        0.61805
H          3.07304       -0.99878        1.52870
H          1.08020       -2.42103        1.40702
H          0.81307       -0.91480        0.53241
H          1.26210       -3.52323       -0.68146
H          0.08991       -2.41158       -0.97338
H          4.24022       -0.58347       -0.61911
H          2.88707       -1.12276       -1.38485
C          2.86617       -1.52985        0.59239
C          1.37707       -1.85179        0.51397
N          3.23391       -0.67629       -0.53778
N          1.07180       -2.52897       -0.74512
N          1.38865        1.77046       -0.14322
C          1.26844        1.96949        1.29201
C          1.82608        2.96972       -0.83571
H          2.04645        1.00754       -0.32984
H          0.48283        2.70573        1.50188
H          0.97250        1.03392        1.77423
H          2.19935        2.33139        1.76242
H          1.05370        3.74622       -0.76460
H          2.76068        3.39526       -0.42946
H          1.98327        2.74828       -1.89517
