34
1msa1eda1tma_45.log	Energy: -645833.8329875
S         -0.77757        1.59833        0.03416
O         -1.92505        2.49040        0.17915
O         -0.80196        0.71964       -1.16546
O         -0.53356        0.74624        1.26694
H         -0.61864       -0.69317        0.91336
C          0.69359        2.60040       -0.10366
H          0.58767        3.22579       -0.99072
H          0.76480        3.21803        0.79210
H          1.56402        1.94605       -0.19477
H         -2.27421       -3.20957        0.78025
H         -2.36044       -1.89989        1.99486
H         -4.12916       -1.76180        0.14739
H         -3.14097       -0.30917        0.30904
H         -3.38877       -1.84085       -1.98799
H         -2.27188       -0.64540       -1.71265
H         -0.08031       -2.33629        1.01494
H         -0.71148       -1.75411       -0.41889
C         -2.17791       -2.13319        0.94386
C         -3.11971       -1.36334        0.01106
N         -0.78858       -1.73091        0.60756
N         -2.65993       -1.52069       -1.36573
N          3.14080       -0.30511       -0.15394
C          4.48638       -0.82328       -0.31511
H          4.84936       -0.60976       -1.32452
H          5.15966       -0.33951        0.39850
H          4.54106       -1.91849       -0.15303
C          2.65250       -0.51572        1.19514
H          3.34507       -0.07367        1.91714
H          1.67754       -0.03746        1.32532
H          2.55888       -1.59717        1.43931
C          2.23483       -0.87049       -1.13638
H          1.25544       -0.38625       -1.07940
H          2.62573       -0.70289       -2.14376
H          2.10822       -1.96736       -1.00281
