28
1msa1ma1eda_133.log	Energy: -596509.7668307
S         -1.01057       -1.17558       -0.15898
O         -0.74271       -2.61063       -0.16383
O         -0.62611       -0.42406       -1.35444
O         -0.35381       -0.51905        1.11599
H          0.70220       -0.67784        1.11477
C         -2.72260       -0.86976        0.18737
H         -3.28498       -1.28984       -0.64781
H         -2.97880       -1.37851        1.11661
H         -2.87199        0.21394        0.25873
H          3.64492       -0.95401       -0.54496
H          1.96470       -1.25845       -1.03863
H          2.65881        0.97887       -1.77794
H          1.36830        1.07939       -0.58200
H          4.19813        1.66830       -0.09479
H          2.88920        2.58617        0.24410
H          2.42521       -1.81536        1.32319
H          2.68881       -0.20497        1.59631
C          2.59977       -0.65512       -0.38469
C          2.42198        0.82088       -0.71715
N          2.19021       -0.87722        1.01348
N          3.22767        1.63271        0.19898
N         -2.69654        2.50958        0.20300
H         -3.20143        2.90966       -0.58042
C         -1.25075        2.63744        0.00770
H         -0.89433        3.67439       -0.08524
H         -0.73718        2.16169        0.84744
H         -0.96597        2.08295       -0.89000
H         -2.99519        3.00667        1.03504
