23
1msa2ma_31.log	Energy: -537114.8166627
S         -1.44064       -0.09367       -0.14078
O         -0.66052       -0.70713       -1.21324
O         -2.06384        1.19574       -0.41251
O         -0.56571        0.00015        1.16949
H          0.21431        0.71136        1.05360
C         -2.67194       -1.24944        0.41207
H         -3.36235       -1.39480       -0.41945
H         -2.17612       -2.18500        0.66921
H         -3.18697       -0.82181        1.27153
N          2.04648       -1.72609        0.10759
H          1.37353       -1.49495       -0.61681
C          3.36690       -1.18267       -0.15624
H          3.42403       -0.08305       -0.26447
H          4.05205       -1.47235        0.64641
H          3.75889       -1.61200       -1.08267
H          1.65987       -1.39623        0.98374
N          1.34417        1.69480        0.81120
H          1.21022        2.53726        1.36316
C          1.36771        2.01422       -0.62887
H          2.17675        2.70067       -0.89674
H          1.47761        1.08455       -1.19029
H          0.40819        2.45456       -0.90572
H          2.23030        1.28685        1.09783
