31
1msa1dma1eda_77.log	Energy: -621175.5843403
S          1.82175       -0.09440       -0.03640
O          1.82715        1.36683        0.13739
O          1.07733       -0.57955       -1.21729
O          1.38120       -0.81891        1.21465
H         -0.04844       -1.24039        1.30793
C          3.52470       -0.58830       -0.24935
H          3.90643       -0.08922       -1.14040
H          4.08287       -0.27704        0.63377
H          3.55992       -1.67114       -0.36967
H         -3.05414       -1.01650        1.07702
H         -1.81460        0.20945        0.62913
H         -2.74645       -1.00167       -1.39087
H         -0.99978       -1.21719       -1.18186
H         -3.05504       -3.23896       -0.70770
H         -1.58273       -3.38521       -1.40928
H         -1.25667       -1.47573        2.47845
H         -1.13756       -2.57566        1.22046
C         -2.06278       -0.86191        0.63809
C         -1.97840       -1.46555       -0.76073
N         -1.07044       -1.58281        1.48480
N         -2.09179       -2.92556       -0.66435
N         -1.06771        2.18593        0.12291
C         -1.62120        3.40285        0.68885
C         -1.25316        2.09720       -1.31771
H         -0.06898        2.12259        0.31816
H         -2.71122        3.40868        0.56443
H         -1.40459        3.44682        1.76009
H         -1.22856        4.32206        0.21972
H         -2.31622        1.94394       -1.54802
H         -0.92168        3.00240       -1.85458
H         -0.68126        1.24761       -1.70077
