33
1msa2eda_97.log	Energy: -655911.1870932
S          1.89906       -0.80798       -0.11711
O          1.00719       -1.21580       -1.21102
O          1.22832       -0.67181        1.19856
O          2.67825        0.44521       -0.43597
H          1.93753        1.64756        0.12817
C          3.14461       -2.07553        0.05498
H          2.63856       -3.00920        0.30234
H          3.66995       -2.16678       -0.89588
H          3.82958       -1.78397        0.85100
H         -4.24971       -1.83967        0.34270
H         -3.82424       -1.87908       -1.37397
H         -2.00057       -2.77658       -0.05155
H         -1.48182       -1.29175       -0.84242
H         -2.17654       -1.55285        1.98609
H         -0.75062       -1.08873        1.31738
H         -4.78116        0.24812       -0.78017
H         -3.57361        0.51253        0.29347
C         -3.59289       -1.38793       -0.42260
C         -2.14263       -1.68539       -0.06580
N         -3.80691        0.05008       -0.57967
N         -1.76598       -1.05220        1.20343
H          0.04767        3.84741       -0.57861
H          0.84853        2.65334       -1.63858
H         -1.62325        2.10705       -1.19369
H         -0.51285        0.83534       -0.71054
H         -1.98690        2.58501        1.06831
H         -1.55794        0.98532        1.22375
H          1.92632        3.28116        0.65218
H          0.73300        2.23507        1.22200
C          0.35798        2.80309       -0.67536
C         -0.83081        1.85639       -0.48098
N          1.32713        2.49708        0.41126
N         -1.24345        1.91275        0.91892
