34
1msa1eda1tma_61.log	Energy: -645831.7670193
S         -0.36853        2.12805       -0.07837
O         -0.13697        3.55740       -0.27221
O         -0.14437        1.63299        1.31232
O          0.42548        1.25743       -1.03727
H          1.58862        0.69943       -0.20848
C         -2.07742        1.80311       -0.47591
H         -2.68812        2.39765        0.20468
H         -2.24132        2.12285       -1.50561
H         -2.29417        0.73832       -0.36321
H          2.46410       -1.41238        1.74704
H          0.93190       -1.30901        0.85592
H          2.49046       -2.90317       -0.26946
H          2.13789       -1.50987       -1.29472
H          4.64182       -1.99400        0.13440
H          4.41111       -1.50552       -1.40958
H          1.76413        0.88484        1.39741
H          3.17434        0.55189        0.48741
C          2.00230       -1.10958        0.80270
C          2.64791       -1.82228       -0.37788
N          2.18362        0.34630        0.62834
N          4.05352       -1.42639       -0.46568
N         -2.27643       -1.69834       -0.07663
C         -3.16890       -2.83969       -0.15072
H         -4.00511       -2.70271        0.54087
H         -3.57444       -2.93179       -1.16258
H         -2.66158       -3.79110        0.10574
C         -1.18365       -1.81768       -1.02422
H         -1.58303       -1.95691       -2.03306
H         -0.58264       -0.90219       -1.02697
H         -0.52559       -2.68363       -0.79599
C         -1.79056       -1.49273        1.27570
H         -1.20195       -0.57094        1.33440
H         -2.63591       -1.38852        1.96188
H         -1.17009       -2.34248        1.63090
