26
1msa1ma1dma_20.log	Energy: -561778.9023372
S         -0.24689        0.66303       -0.14881
O          0.02872       -0.50067        0.72766
O         -0.92476        0.33972       -1.41061
O          1.04180        1.44016       -0.37451
H          2.16066        0.56032       -0.27659
C         -1.29802        1.77879        0.75773
H         -2.26577        1.28309        0.87811
H         -0.82850        1.99003        1.71847
H         -1.40780        2.69081        0.17017
N          2.98278       -0.18953       -0.17189
C          2.60914       -1.37935       -0.97250
C          3.15178       -0.47659        1.27039
H          3.83065        0.22963       -0.54912
H          1.67231       -1.76523       -0.56766
H          2.45028       -1.07071       -2.00611
H          3.39749       -2.13295       -0.91493
H          2.18317       -0.80946        1.64712
H          3.91472       -1.24482        1.41530
H          3.44157        0.44342        1.77895
N         -3.68448       -0.39781       -0.18133
H         -4.59868       -0.44699       -0.61661
C         -3.36754       -1.64484        0.51151
H         -3.39531       -2.54284       -0.12535
H         -2.36174       -1.56732        0.93371
H         -4.07034       -1.79313        1.33784
H         -2.99867       -0.22278       -0.91289
