34
1msa1eda1tma_53.log	Energy: -645831.3417122
S          0.22770        1.47454        0.01872
O          0.07354        0.63133       -1.17294
O          1.25177        2.51127       -0.03396
O          0.43936        0.55872        1.27233
H          0.98915       -0.35221        1.04748
C         -1.33966        2.20874        0.41170
H         -1.57659        2.90488       -0.39403
H         -2.07432        1.39851        0.47448
H         -1.23699        2.73986        1.35813
H          2.66536       -2.62740       -0.80070
H          1.44553       -1.41191       -1.27214
H          3.73316       -0.59912       -1.74977
H          2.91659        0.41288       -0.56208
H          5.07914       -1.46948       -0.01588
H          4.86980        0.06133        0.52356
H          1.15119       -2.38591        1.00497
H          2.53902       -1.59645        1.43060
C          2.25879       -1.63207       -0.57649
C          3.35225       -0.57774       -0.72022
N          1.73438       -1.57984        0.80112
N          4.38572       -0.79807        0.29488
N         -3.01167       -0.67089        0.03357
C         -1.99986       -1.69675        0.22082
H         -1.08030       -1.38866       -0.28351
H         -1.79026       -1.81636        1.28853
H         -2.31895       -2.67685       -0.18602
C         -4.24819       -1.02082        0.70741
H         -4.06083       -1.16922        1.77516
H         -4.97561       -0.21066        0.59773
H         -4.70198       -1.94715        0.30409
C         -3.22901       -0.40556       -1.37955
H         -3.96096        0.40042       -1.49440
H         -2.28819       -0.08925       -1.83815
H         -3.60946       -1.29367       -1.92000
