29
1msa2dma_33.log	Energy: -586435.7834436
S          1.62001       -0.64321        0.05900
O          2.63799       -1.67111       -0.08624
O          1.04779       -0.42193        1.39051
O          0.43608       -0.90039       -0.95019
H         -0.43759       -1.27176       -0.44351
C          2.26485        0.89207       -0.56352
H          3.11809        1.15128        0.06515
H          2.59030        0.72463       -1.59063
H          1.48920        1.66347       -0.51253
N         -0.42622        2.94072       -0.29525
C         -0.64096        2.64272        1.11406
C         -1.27849        2.16001       -1.17788
H         -0.56932        3.92966       -0.46490
H         -0.31774        1.61780        1.32355
H         -0.03146        3.31091        1.72797
H         -1.69585        2.74602        1.42622
H         -0.98491        1.10633       -1.12359
H         -2.35367        2.23673       -0.93206
H         -1.13700        2.48596       -2.21183
N         -1.67986       -1.77414        0.17349
C         -2.67674       -2.01198       -0.87418
C         -2.14516       -0.84720        1.21223
H         -1.42614       -2.65759        0.60890
H         -2.87471       -1.06792       -1.38907
H         -2.28014       -2.72378       -1.60109
H         -3.62189       -2.39578       -0.46920
H         -2.35611        0.12036        0.74909
H         -3.05665       -1.20863        1.70504
H         -1.34786       -0.70858        1.94380
