26
1msa1ma1dma_03.log	Energy: -561791.3884214
S          1.58194        0.08385       -0.06939
O          1.02041        0.21204        1.29762
O          1.32891        1.26323       -0.92288
O          1.13789       -1.19786       -0.71686
C          3.35225       -0.06749        0.09848
H          3.72371        0.84275        0.56974
H          3.56578       -0.93832        0.71841
H          3.78039       -0.18709       -0.89689
N         -1.46800       -1.16157       -0.08501
C         -2.41943       -1.69964       -1.06847
C         -1.56726       -1.74679        1.26540
H         -0.47043       -1.28332       -0.42127
H         -3.44227       -1.52193       -0.72887
H         -2.25865       -1.19855       -2.02379
H         -2.25675       -2.77204       -1.19257
H         -2.55378       -1.53841        1.68579
H         -1.41031       -2.82574        1.20739
H         -0.78467       -1.29062        1.87427
H         -1.57792       -0.09649       -0.00483
N         -1.44076        1.59957        0.17436
H         -1.00471        1.67170        1.09159
C         -2.53068        2.56336        0.01958
H         -2.21451        3.60576        0.14983
H         -2.96660        2.46270       -0.97811
H         -3.31722        2.35178        0.74963
H         -0.66877        1.79422       -0.46849
