33
1msa2eda_136.log	Energy: -655906.8577799
S          2.24263       -0.64836       -0.00588
O          1.40307       -1.79877        0.35157
O          2.58340        0.24433        1.14100
O          1.67729        0.16533       -1.14006
H          1.17919        1.57782       -0.50011
C          3.78659       -1.30406       -0.61160
H          4.23844       -1.88757        0.19088
H          3.56864       -1.93779       -1.47143
H          4.43182       -0.47299       -0.89604
H         -4.17362       -1.78016        1.14708
H         -4.53352       -2.13620       -0.53303
H         -2.32413       -2.99249        0.03857
H         -2.17560       -1.71445       -1.17023
H         -1.73656       -1.29481        1.69768
H         -0.56601       -1.40867        0.57238
H         -3.67678        0.45481        0.52416
H         -3.98669        0.16869       -1.03788
C         -3.89840       -1.52240        0.11538
C         -2.43542       -1.90864       -0.12171
N         -4.23803       -0.12012       -0.09602
N         -1.53393       -1.11393        0.71751
H         -1.18686        3.42868       -0.76761
H         -2.31546        2.58881        0.27653
H         -0.34638        3.07216        1.61679
H         -0.42351        1.31508        1.32081
H          1.36402        3.22106       -0.05277
H          1.77668        1.90798        0.93824
H         -0.66098        1.36060       -1.82926
H         -1.48333        0.51317       -0.68627
C         -1.35318        2.48188       -0.23735
C         -0.29263        2.29335        0.85112
N         -1.45116        1.39903       -1.19482
N          1.07979        2.30105        0.27624
