23
1msa1a1dma_26.log	Energy: -537109.7200258
S          1.69742       -0.30320       -0.16440
O          0.62955       -0.93972       -0.91166
O          3.02780       -0.88953       -0.15049
O          1.21404       -0.21841        1.39167
H          1.89581       -0.64674        1.92890
C          1.76053        1.41582       -0.58141
H          1.97738        1.46475       -1.64987
H          0.78267        1.86750       -0.35001
H          2.56395        1.87345       -0.00405
N         -2.29898       -0.31044       -0.15342
C         -3.47587       -0.59322       -0.95856
C         -2.35626       -0.91649        1.16831
H         -1.46238       -0.63867       -0.62838
H         -4.35688       -0.13644       -0.49382
H         -3.35555       -0.15499       -1.95308
H         -3.67758       -1.67172       -1.07543
H         -3.16235       -0.45417        1.74982
H         -2.53958       -2.00409        1.14120
H         -1.41071       -0.73869        1.68694
N         -1.18065        2.51371        0.26183
H         -1.67053        3.24223       -0.24717
H         -1.24543        2.74268        1.24855
H         -1.68161        1.62786        0.11166
