29
1msa1ma1tma_26.log	Energy: -586436.8692257
S         -1.46233       -1.03270        0.08475
O         -2.72850       -1.74609        0.05568
O         -1.13373       -0.26682        1.29003
O         -1.35079       -0.05913       -1.16102
H         -1.66337        0.89734       -0.87878
C         -0.14596       -2.16761       -0.27654
H         -0.17288       -2.92756        0.50576
H         -0.34934       -2.61949       -1.24770
H          0.81073       -1.63337       -0.27087
N         -2.05731        2.29878       -0.30614
H         -2.47400        2.92792       -0.98560
C         -0.87822        2.90599        0.33051
H         -1.10543        3.84108        0.85352
H         -0.46912        2.18561        1.04150
H         -0.12278        3.10407       -0.43321
H         -2.76714        2.09931        0.39423
N          2.57951       -0.18665       -0.05788
C          3.99468       -0.44777       -0.25130
H          4.33166       -1.20983        0.45736
H          4.16916       -0.82183       -1.26450
H          4.61484        0.45772       -0.10466
C          2.08521        0.78010       -1.02283
H          2.27509        0.42171       -2.03892
H          1.00492        0.89803       -0.90593
H          2.56572        1.77173       -0.90793
C          2.29926        0.24262        1.30339
H          1.22010        0.35172        1.44337
H          2.65544       -0.51295        2.00985
H          2.79262        1.20341        1.54774
