25
1msa1a1eda_06.log	Energy: -571866.0867577
S         -1.48678       -0.39241        0.01837
O         -0.58086       -0.92965       -1.03374
O         -2.16087        0.86214       -0.37664
O         -0.76027       -0.26424        1.32307
C         -2.76220       -1.61210        0.27524
H         -3.29002       -1.74599       -0.66918
H         -2.28918       -2.54234        0.58970
H         -3.43796       -1.24105        1.04594
H          3.40870        0.98127       -0.37608
H          3.00806        1.01012        1.36325
H          3.94780       -1.19895        0.59800
H          2.32884       -1.34743        1.29376
H          2.92425       -2.39215       -1.04765
H          1.45441       -1.67436       -0.87326
H          1.10616        1.92091       -0.01955
H          1.08320        0.45524       -0.81134
C          2.76178        0.56223        0.39765
C          2.89340       -0.95995        0.43234
N          1.36326        0.90808        0.06966
N          2.46161       -1.51630       -0.84313
H          0.68509        0.50548        0.76473
N         -0.22735        3.19830       -0.25385
H         -0.22751        3.76542       -1.09572
H         -0.42059        3.81971        0.52534
H         -1.01712        2.54505       -0.32351
