32
1msa1dma1tma_13.log	Energy: -611102.0518087
S          1.22227       -1.26820       -0.03519
O          2.67111       -1.41838       -0.17363
O          0.50773       -0.85580       -1.27220
O          0.83276       -0.32359        1.08894
H          0.52092        1.00447        0.45729
C          0.54114       -2.84094        0.45801
H          0.78400       -3.56514       -0.32020
H          1.00119       -3.12746        1.40393
H         -0.54018       -2.72886        0.55925
N         -2.39848       -0.88106       -0.01438
C         -2.47218       -0.19770        1.25818
C         -3.48298       -0.55354       -0.91444
H         -1.49818       -0.74434       -0.46695
H         -3.32907       -0.56819        1.83286
H         -1.55822       -0.38590        1.82620
H         -2.60507        0.90220        1.16635
H         -4.43241       -0.91376       -0.50135
H         -3.59773        0.53426       -1.09577
H         -3.32618       -1.04591       -1.87746
N          0.47336        2.00222        0.02107
C         -0.60057        2.03952       -0.99813
H         -0.40524        1.24581       -1.71955
H         -1.55851        1.85675       -0.50969
H         -0.60858        3.02123       -1.47936
C          0.22405        2.93881        1.13606
H         -0.74117        2.70119        1.58536
H          1.00918        2.81329        1.88256
H          0.22014        3.96638        0.76329
C          1.80850        2.20362       -0.59356
H          2.57061        2.07161        0.17495
H          1.94745        1.44267       -1.36250
H          1.86591        3.20640       -1.02465
