33
1msa2eda_41.log	Energy: -655916.7862473
S          1.72138       -1.01074       -0.02675
O          1.04336       -2.07871        0.73739
O          2.11488        0.15320        0.80349
O          0.94144       -0.57711       -1.23014
H         -0.05567        0.80523       -0.85550
C          3.22840       -1.72332       -0.66780
H          3.83505       -2.04589        0.17881
H          2.96357       -2.57296       -1.29754
H          3.74859       -0.96083       -1.24795
H         -4.25373       -1.58153        0.42413
H         -3.75744       -1.76560       -1.25844
H         -2.14617       -2.79666        0.27016
H         -1.40055       -1.53578       -0.70000
H         -2.20406       -1.18308        2.09888
H         -0.68978       -1.33472        1.48265
H         -4.40569        0.42380       -1.09992
H         -3.67721        0.67578        0.33192
C         -3.51088       -1.25777       -0.32141
C         -2.11978       -1.71036        0.10701
N         -3.57886        0.19532       -0.55839
N         -1.63050       -0.97989        1.28471
H          0.44275        2.58892        1.57239
H          0.32477        4.18024        0.81112
H         -1.72858        2.98574        0.37493
H         -0.82065        3.17883       -1.14747
H         -1.00582        0.69116        0.50123
H         -1.74069        0.96339       -0.89968
H          2.34426        3.54762        0.03383
H          1.99375        1.94627        0.00253
C          0.42715        3.11015        0.60224
C         -0.82202        2.69758       -0.16725
N          1.62114        2.87681       -0.19392
N         -0.88654        1.23421       -0.38253
