28
1msa1ma1eda_69.log	Energy: -596520.9941065
S         -1.79397       -0.02340       -0.08953
O         -0.89906       -1.15371       -0.45972
O         -1.92823        1.00354       -1.12896
O         -1.39238        0.54577        1.24701
C         -3.41204       -0.72592        0.18077
H         -3.74468       -1.16593       -0.75962
H         -3.33669       -1.48610        0.95830
H         -4.08305        0.07673        0.48729
H          1.02092        2.64418        0.61991
H          2.64594        2.28040        1.24098
H          2.71488        2.27703       -1.17106
H          3.03214        0.65996       -0.57211
H          0.79103        0.03187       -1.25005
H          0.48244        1.53631       -1.76738
H          0.14891        0.68177        1.36761
H          1.59376       -0.20533        1.20736
C          1.78969        1.87042        0.69683
C          2.24093        1.41060       -0.69562
N          1.21511        0.74864        1.49328
N          1.23690        0.88090       -1.58769
H          1.37817        0.87958        2.48864
N          1.71886       -1.87320        0.62642
H          1.80069       -2.56015        1.36977
C          2.62584       -2.21615       -0.47640
H          2.47637       -3.23223       -0.86028
H          2.46604       -1.52043       -1.30397
H          3.66406       -2.11829       -0.14633
H          0.74730       -1.89788        0.29912
