34
1msa1eda1tma_43.log	Energy: -645833.9657058
S          0.29039       -0.80594       -0.35359
O          0.39586        0.26685       -1.36340
O          0.05945       -0.30653        1.02311
O          1.50110       -1.71527       -0.37256
H          2.45548       -1.06237        0.63716
C         -1.09069       -1.83161       -0.80417
H         -1.99461       -1.21329       -0.75444
H         -0.91787       -2.20678       -1.81325
H         -1.14517       -2.65393       -0.09002
H          4.75911        0.81625        1.15165
H          4.77124       -0.62178        0.09405
H          4.37348        1.56160       -1.16371
H          3.07883        0.37448       -1.37505
H          2.82532        2.92329       -0.16518
H          1.65537        1.80169       -0.53170
H          3.31256       -0.82403        2.12017
H          2.36959        0.39063        1.45718
C          4.15946        0.19708        0.47881
C          3.55693        1.04174       -0.65125
N          3.03113       -0.37618        1.25240
N          2.56275        1.95014       -0.09354
N         -3.51830        0.31661        0.07676
C         -2.82791        1.54855       -0.27046
H         -1.76474        1.45285       -0.03798
H         -2.92552        1.73627       -1.34383
H         -3.23482        2.42242        0.27552
C         -4.92548        0.38241       -0.26607
H         -5.03989        0.58041       -1.33631
H         -5.40926       -0.57361       -0.04252
H         -5.46082        1.17772        0.28998
C         -3.32504       -0.01411        1.47933
H         -3.80673       -0.97247        1.70018
H         -2.25522       -0.10421        1.68766
H         -3.75652        0.75113        2.15425
