33
1msa2eda_131.log	Energy: -655904.0219454
S         -0.16708        1.82031       -0.13804
O         -1.02827        2.99410       -0.21464
O         -0.16272        0.93164       -1.30718
O         -0.49689        0.98166        1.14762
H         -1.48580        0.53257        1.09251
C          1.49876        2.31030        0.22493
H          1.84968        2.87690       -0.63881
H          1.47650        2.94206        1.11303
H          2.11703        1.42103        0.38772
H         -4.00583       -1.00183       -0.52067
H         -2.77702        0.14821       -1.09864
H         -2.10010       -2.16878       -1.61656
H         -0.97754       -1.38860       -0.50385
H         -2.91860       -3.46245        0.19122
H         -1.33651       -3.34875        0.59220
H         -3.51923        0.54351        1.23263
H         -2.82498       -0.90495        1.63265
C         -2.97636       -0.64765       -0.37624
C         -1.98987       -1.78977       -0.59168
N         -2.78735       -0.11607        0.98589
N         -2.18145       -2.81185        0.43994
H          3.69982       -2.49462        0.32525
H          2.97150       -1.81026        1.79137
H          1.24795       -2.64854        0.22798
H          1.10148       -0.91134        0.51648
H          1.81441       -2.19017       -1.96881
H          1.13670       -0.70377       -1.68401
H          4.64856       -0.31544        0.88119
H          3.79400       -0.22051       -0.52012
C          3.09688       -1.65604        0.71359
C          1.72595       -1.67429        0.04035
N          3.71570       -0.35294        0.48584
N          1.84340       -1.36682       -1.38255
