28
1msa1ma1eda_169.log	Energy: -596509.4672477
S          0.65546       -0.77933        0.28374
O          0.47743        0.16624       -0.82956
O          0.29747       -0.31217        1.61395
O          2.14885       -1.28421        0.25752
H          2.75756       -0.55068       -0.20499
C         -0.23907       -2.26638       -0.06942
H         -1.28917       -1.96417       -0.17004
H          0.13635       -2.67833       -1.00612
H         -0.08578       -2.96120        0.75635
H         -4.41664        0.90889       -0.71368
H         -4.36086       -0.38636        0.50444
H         -3.48127        1.73846        1.36020
H         -2.23958        0.47434        1.38183
H         -1.73845        2.81840        0.41219
H         -1.15712        1.52403       -0.38068
H         -3.55182       -1.17119       -1.61069
H         -2.37530       -0.04609       -1.62458
C         -3.74533        0.24895       -0.14310
C         -2.84171        1.11755        0.72336
N         -2.94516       -0.62283       -1.00948
N         -2.01679        1.99601       -0.10963
N          3.44374        0.63865       -0.85727
H          4.31967        0.45416       -1.33587
C          3.59435        1.70870        0.14107
H          3.93210        2.65476       -0.29434
H          2.62983        1.86731        0.62799
H          4.30992        1.38947        0.90115
H          2.75115        0.90295       -1.55511
