25
1msa1a1eda_68.log	Energy: -571844.3647092
S         -1.71629       -0.10112       -0.06285
O         -1.70639        1.35346       -0.12986
O         -1.14393       -0.88625       -1.13861
O         -3.28006       -0.53827        0.07570
H         -3.81847        0.25738       -0.04173
C         -1.07470       -0.66661        1.48534
H          0.00973       -0.46202        1.49259
H         -1.58242       -0.12256        2.28185
H         -1.26925       -1.73754        1.55371
H          3.86327       -0.22056        0.22672
H          3.31504       -1.64591        1.11667
H          2.77399       -2.01537       -1.16717
H          1.26222       -1.72023       -0.30647
H          2.51984        0.00568       -2.25593
H          0.93309       -0.33795       -2.00352
H          2.59768        0.17942        2.34933
H          1.94220        0.96009        1.07093
C          2.96522       -0.76241        0.56937
C          2.18460       -1.24287       -0.65056
N          2.12452        0.03186        1.46419
N          1.81456       -0.13868       -1.54192
N          1.23612        2.55611       -0.06905
H          1.61963        3.44375       -0.37317
H          0.22551        2.64424       -0.01720
H          1.43448        1.84434       -0.77619
