33
1msa2eda_03.log	Energy: -655921.3383264
S          0.62008        1.74141       -0.03291
O          1.68354        1.03237       -0.78236
O          0.60169        1.42395        1.41292
O         -0.72360        1.55827       -0.67183
H         -1.02817       -0.15320       -0.79321
C          0.97174        3.48642       -0.16966
H          0.98370        3.75006       -1.22729
H          0.19098        4.03423        0.35832
H          1.94526        3.66837        0.28609
H         -2.73121       -0.81982        1.48397
H         -4.21606       -1.33653        0.67521
H         -2.40107       -2.72069       -0.12225
H         -2.92407       -1.65053       -1.44932
H         -0.52109       -1.30570        0.31781
H         -0.44757       -1.66030       -1.24762
H         -4.21963        0.97500        0.49913
H         -2.67955        1.06855       -0.05746
C         -3.25787       -0.83240        0.51384
C         -2.45451       -1.68294       -0.46377
N         -3.51679        0.48670       -0.04238
N         -1.07248       -1.17472       -0.57753
H          2.49418       -0.70455        0.71539
H          2.78776       -2.12995        1.71475
H          3.20578       -2.78783       -0.48115
H          1.65396       -3.53132       -0.07868
H          1.73919       -0.93844       -1.45976
H          1.81135       -2.35434       -2.29547
H          0.57593       -2.17056        2.27977
H          0.68186       -0.56003        1.91019
C          2.10609       -1.69417        0.97292
C          2.14655       -2.57051       -0.27877
N          0.75632       -1.50785        1.53378
N          1.49185       -1.93129       -1.43090
