29
1msa1ma1tma_20.log	Energy: -586440.5675319
S          1.21385       -0.93400       -0.01993
O          1.03593       -0.01191        1.12166
O          1.51644       -0.25975       -1.29350
O          0.02341       -1.86324       -0.14013
H         -1.20751       -1.01102       -0.04209
C          2.58447       -2.00840        0.36128
H          3.47655       -1.38700        0.44379
H          2.37640       -2.51288        1.30468
H          2.69133       -2.72839       -0.45013
N          1.29878        2.90273       -0.63180
H          0.81730        3.26693       -1.44440
C          0.62125        3.22028        0.61218
H         -0.44225        2.91889        0.66762
H          1.13781        2.71794        1.43272
H          0.66258        4.29963        0.79380
H          1.45198        1.90537       -0.75514
N         -2.05621       -0.32628       -0.01855
C         -3.26415       -1.10546       -0.35835
H         -3.12869       -1.55485       -1.34279
H         -3.39558       -1.89481        0.38261
H         -4.13868       -0.44951       -0.36326
C         -2.11550        0.24851        1.34702
H         -2.32173       -0.55382        2.05631
H         -1.13855        0.68004        1.57086
H         -2.90529        1.00303        1.38939
C         -1.76191        0.71388       -1.03499
H         -0.82911        1.21252       -0.76852
H         -1.63253        0.23048       -2.00352
H         -2.58476        1.43269       -1.06765
