26
1msa1ma1dma_48.log	Energy: -561774.4683120
S         -1.49884       -0.43645       -0.19488
O         -0.58111       -1.22003       -1.01437
O         -2.19279        0.68403       -0.83257
O         -0.76449        0.08561        1.08693
H         -0.49045        1.13755        0.93901
C         -2.69574       -1.54684        0.50980
H         -3.24141       -1.99480       -0.32125
H         -2.16118       -2.31141        1.07330
H         -3.36463       -0.97605        1.15288
N          2.41709       -1.26905        0.03868
C          3.31309       -0.71713       -0.95532
C          2.52319       -0.62105        1.32727
H          1.45873       -1.25344       -0.29797
H          4.35364       -0.90244       -0.66304
H          3.14336       -1.20581       -1.91819
H          3.20285        0.37555       -1.10235
H          3.51422       -0.80999        1.75715
H          2.38723        0.47887        1.29093
H          1.77161       -1.02473        2.00960
N         -0.16961        2.48461        0.55688
H         -1.05800        2.85103        0.22108
C          0.81132        2.44833       -0.54294
H          0.99099        3.43547       -0.97846
H          1.75141        2.04273       -0.16475
H          0.43746        1.77774       -1.31930
H          0.14920        3.07717        1.31768
