29
1msa1ma1tma_11.log	Energy: -586441.9543560
S         -0.56476       -0.65001       -0.08412
O         -1.21481       -0.41391       -1.38019
O         -0.36148        0.56515        0.74233
O          0.75449       -1.38858       -0.23179
H          1.84707       -0.42434       -0.10484
C         -1.60900       -1.75280        0.84739
H         -2.58996       -1.27561        0.92794
H         -1.68573       -2.69109        0.29702
H         -1.15488       -1.91271        1.82539
N         -4.03149        0.28878       -0.28326
H         -3.31968        0.07929       -0.98028
C         -3.78103        1.60420        0.30200
H         -3.82747        2.43909       -0.41454
H         -4.50966        1.79718        1.09614
H         -2.78401        1.60561        0.75115
H         -4.93479        0.26278       -0.74282
N          2.65523        0.31704       -0.01047
C          2.74244        0.65907        1.42722
H          1.75704        1.00320        1.74474
H          3.00945       -0.23992        1.98455
H          3.50104        1.43241        1.57703
C          3.89001       -0.31163       -0.51949
H          4.09753       -1.21066        0.06219
H          3.73863       -0.58837       -1.56346
H          4.72546        0.38891       -0.43649
C          2.24847        1.48738       -0.82442
H          2.09504        1.16038       -1.85370
H          1.30496        1.86276       -0.42611
H          3.02900        2.25185       -0.78084
