34
1msa1eda1tma_28.log	Energy: -645837.3115863
S         -1.65868       -1.08313        0.05413
O         -0.69402       -1.00025        1.17006
O         -1.13201       -1.71690       -1.16688
O         -2.27145        0.27187       -0.22452
H         -1.23686        1.36245       -0.12186
C         -3.03180       -2.08144        0.60451
H         -3.44974       -1.63045        1.50448
H         -3.77275       -2.11373       -0.19419
H         -2.64999       -3.08078        0.81494
H          4.44359       -1.00102       -0.49762
H          4.19813       -1.48552        1.17266
H          2.64772       -2.73024       -0.22776
H          1.70867       -1.60033        0.75578
H          2.34712       -1.24617       -2.06851
H          0.87532       -1.35890       -1.35427
H          3.03030        0.91361       -0.00499
H          3.04875        0.51500        1.57694
C          3.73128       -0.95304        0.33679
C          2.43576       -1.66160       -0.06178
N          3.58044        0.45142        0.71375
N          1.82809       -1.01383       -1.22648
N         -0.50195        2.16026       -0.07580
C          0.37315        1.99676       -1.26269
H          0.88871        1.03004       -1.20030
H         -0.24951        2.01885       -2.15831
H          1.09878        2.81496       -1.28852
C         -1.24931        3.43438       -0.10453
H         -1.81418        3.49021       -1.03570
H         -1.94114        3.45881        0.73817
H         -0.55023        4.27229       -0.04117
C          0.25420        1.98039        1.18605
H         -0.42994        2.10565        2.02575
H          0.64121        0.96103        1.20391
H          1.05896        2.71900        1.23480
