31
1msa1dma1eda_89.log	Energy: -621174.1397413
S         -2.05941       -0.28141       -0.03166
O         -2.16751        1.05514       -0.62269
O         -1.09695       -0.34817        1.12272
O         -1.75729       -1.36810       -1.01457
C         -3.65622       -0.68021        0.66108
H         -3.89968        0.07921        1.40440
H         -4.38549       -0.67057       -0.14925
H         -3.60088       -1.66714        1.12036
H          1.96143       -1.28902       -1.79223
H          1.29573        0.11860       -0.91635
H          3.70761       -0.14521       -0.41990
H          2.70995       -0.33184        1.01605
H          4.01812       -2.51420       -0.43937
H          4.04206       -2.19563        1.16240
H         -0.07777       -1.95721       -0.75762
H          1.22979       -2.61458        0.16551
C          1.73399       -0.87473       -0.80605
C          2.97775       -0.80340        0.06566
N          0.74930       -1.76923       -0.15297
N          3.46237       -2.16078        0.33264
H          0.26674       -1.27277        0.63746
N          1.69466        2.34005       -0.04443
C          1.14969        2.25651        1.30745
C          0.72546        2.88772       -0.99195
H          2.51976        2.93067       -0.03657
H          0.32588        1.53567        1.32336
H          1.92642        1.91000        1.99792
H          0.76244        3.21933        1.68248
H         -0.15843        2.24253       -1.02664
H          0.38172        3.90061       -0.72215
H          1.17069        2.92759       -1.99077
