23
1msa2ma_37.log	Energy: -537107.1001713
S          1.61585       -0.13475       -0.05090
O          0.97015       -1.19195       -0.80405
O          3.01821       -0.24896        0.31582
O          0.78844        0.03453        1.34696
H          1.42708       -0.03298        2.07104
C          1.28357        1.42336       -0.82184
H          1.73628        1.37587       -1.81373
H          0.18958        1.55350       -0.88552
H          1.75207        2.20374       -0.22196
N         -1.93306        1.57447       -0.67243
H         -2.53106        2.12065       -1.28333
C         -2.21309        1.88515        0.72798
H         -3.24459        1.66967        1.04462
H         -1.53792        1.30230        1.36126
H         -2.01437        2.94407        0.92265
H         -2.12792        0.58389       -0.85322
N         -2.10135       -1.48929       -0.78038
H         -2.69031       -2.07411       -1.36279
C         -2.21892       -1.87063        0.62687
H         -1.99016       -2.92640        0.83069
H         -1.53056       -1.25861        1.21531
H         -3.23422       -1.66503        0.97943
H         -1.14043       -1.61307       -1.08841
