33
1msa2eda_12.log	Energy: -655917.9579204
S         -1.45593       -1.24495       -0.04377
O         -2.82407       -1.09072       -0.54325
O         -1.17725       -0.52885        1.23099
O         -0.40667       -0.88724       -1.06756
C         -1.19479       -2.98200        0.28509
H         -1.92212       -3.29587        1.03422
H         -1.34460       -3.52900       -0.64613
H         -0.17819       -3.11759        0.65664
H          0.02647        3.58289       -0.32869
H         -0.20054        2.62039       -1.81599
H         -2.37497        3.35296       -0.74713
H         -2.24325        1.59756       -0.89035
H         -2.74589        2.91400        1.42895
H         -2.10170        1.39867        1.35758
H          1.45510        1.62919       -0.16509
H          0.11260        1.43569        0.84912
C         -0.35965        2.64486       -0.73535
C         -1.83719        2.47665       -0.37358
N          0.40905        1.53431       -0.12891
N         -1.97004        2.36949        1.07756
H          0.15568        0.61744       -0.58157
H          4.57470       -0.19586        0.65002
H          3.44583        0.58498        1.77285
H          2.86781       -1.80839        1.25574
H          1.56360       -0.69279        0.89654
H          3.04398       -2.24875       -1.00212
H          1.55446       -1.52948       -1.12814
H          3.93305        1.95631       -0.19454
H          3.28149        0.77476       -1.13763
C          3.54423        0.17172        0.76328
C          2.56797       -0.99596        0.58069
N          3.23480        1.22057       -0.22048
N          2.51646       -1.40509       -0.82048
