28
1msa1ma1eda_38.log	Energy: -596522.5085862
S         -1.38339       -0.76678        0.06423
O         -2.19226        0.35768        0.62976
O         -0.45447       -1.35653        1.05439
O         -0.70300       -0.35461       -1.19426
H         -0.43608        1.81709       -1.12005
C         -2.55137       -2.04456       -0.36335
H         -3.06594       -2.34940        0.54797
H         -3.25625       -1.63834       -1.08882
H         -1.99672       -2.88077       -0.78960
H          3.74868       -0.94331        0.79911
H          3.96469       -0.92966       -0.94589
H          3.27900        1.29063       -0.33110
H          1.91224        0.51883       -1.15457
H          1.04198        0.03090        1.10871
H          2.19311        1.02652        1.71985
H          1.62032       -2.03605        0.45325
H          1.81819       -1.98317       -1.14762
C          3.20783       -0.87251       -0.15381
C          2.52423        0.49937       -0.24390
N          2.33262       -2.02758       -0.27265
N          1.64404        0.83206        0.88789
N         -0.44916        2.25564       -0.19420
H         -1.26095        1.77665        0.26587
C         -0.52997        3.72401       -0.21690
H         -0.56569        4.09328        0.80825
H          0.34868        4.13419       -0.71601
H         -1.43091        4.03977       -0.74366
H          0.42099        1.87041        0.30801
