28
1msa1ma1eda_53.log	Energy: -596520.8067240
S         -1.55767        0.13921        0.03899
O         -1.06592        0.38223        1.40940
O         -1.79681       -1.28246       -0.28447
O         -0.65183        0.78395       -0.98047
H          0.73856       -0.04252       -0.80654
C         -3.12319        0.98053       -0.12889
H         -3.81220        0.55031        0.59847
H         -2.96803        2.04097        0.07072
H         -3.48920        0.82517       -1.14382
H          3.09188       -1.39750        0.47723
H          1.94853       -0.33003        1.33183
H          1.55547       -2.93833        1.45269
H          0.17063       -1.87021        1.20092
H          0.91469       -3.90593       -0.47802
H         -0.15621       -2.69815       -0.79551
H          2.27352        0.48978       -0.88420
H          1.85396       -1.07319       -1.50660
C          2.05094       -1.06669        0.53289
C          1.09027       -2.24605        0.74453
N          1.73986       -0.39398       -0.75182
N          0.80756       -2.90197       -0.53372
N          2.00575        2.39277       -0.67934
H          2.61265        3.11730       -1.04791
C          1.71411        2.63074        0.74290
H          1.34329        3.64237        0.94949
H          0.94628        1.92357        1.07150
H          2.62078        2.46890        1.33350
H          1.12964        2.43151       -1.19773
