26
1msa1a1tma_10.log	Energy: -561776.5910108
S         -1.75463       -0.27916       -0.08556
O         -1.15593       -1.58754        0.11486
O         -1.51654        0.41691       -1.34928
O         -1.35861        0.68538        1.10439
H         -0.73775        1.44005        0.75883
C         -3.50785       -0.42806        0.17776
H         -3.88441       -1.11909       -0.57723
H         -3.66970       -0.83056        1.17759
H         -3.96536        0.55450        0.06815
N          0.18117        2.52322        0.04418
H         -0.03257        2.33462       -0.93375
H          1.17431        2.35990        0.18300
H         -0.01235        3.50076        0.23619
N          2.85197       -0.77271       -0.00563
C          2.08616       -0.71206        1.22466
H          1.30777       -1.47789        1.22053
H          2.74613       -0.88043        2.08128
H          1.58553        0.26766        1.36632
C          3.88749        0.23508       -0.03564
H          4.55775        0.11491        0.82083
H          4.47854        0.14037       -0.95141
H          3.47724        1.26919       -0.00284
C          1.99612       -0.69027       -1.17345
H          2.58877       -0.83722       -2.08150
H          1.22247       -1.45937       -1.12862
H          1.48294        0.28943       -1.25798
