25
1msa1a1eda_24.log	Energy: -571861.6656554
S          1.78685       -0.06903       -0.10353
O          1.92732        1.24093       -0.75220
O          1.52691       -1.20609       -1.01662
O          0.74230       -0.05110        0.99674
C          3.32685       -0.40995        0.73256
H          4.11329       -0.43583       -0.02214
H          3.51108        0.38902        1.45097
H          3.24288       -1.37314        1.23564
H         -3.08547       -2.14116       -0.35839
H         -2.29148       -2.06701        1.23805
H         -4.20411       -0.36118        0.89103
H         -2.66163        0.33443        1.39356
H         -4.02186        0.92293       -0.97954
H         -2.50652        1.45157       -0.49572
H         -0.69673       -2.01233       -0.74675
H         -1.41579       -0.55283       -1.10694
C         -2.48678       -1.52054        0.31316
C         -3.17625       -0.17181        0.56760
N         -1.20188       -1.21960       -0.35077
N         -3.11350        0.63613       -0.64315
H         -0.49322       -0.73754        0.29483
N         -0.84650        2.40730        0.19543
H         -0.38817        1.85163        0.91708
H         -0.97733        3.34405        0.56410
H         -0.13656        2.46892       -0.53324
