31
1msa1dma1eda_59.log	Energy: -621179.3658899
S         -1.82237        0.00871        0.03127
O         -2.08281       -1.42967        0.18600
O         -0.98898        0.34768       -1.15283
O         -1.24956        0.64279        1.26763
H          0.35140        0.66350        1.21128
C         -3.40349        0.80460       -0.20447
H         -3.85871        0.38598       -1.10243
H         -4.02003        0.59786        0.67054
H         -3.23787        1.87618       -0.31702
H          2.35518        1.01294       -1.13662
H          3.01680        2.59715       -0.72823
H          3.33670        1.17069        1.16251
H          2.09721        2.38755        1.57796
H          1.58187       -0.45842        0.74683
H          1.49443        0.17750        2.30103
H          0.99898        3.15972       -1.60626
H          0.17856        1.91315       -0.92987
C          2.19085        1.90997       -0.51651
C          2.32144        1.52143        0.95147
N          0.93268        2.58569       -0.77464
N          1.38708        0.42719        1.31940
N          1.83097       -1.95661       -0.08884
C          1.54272       -1.77985       -1.51860
C          0.89229       -2.89347        0.54645
H          2.77344       -2.32335        0.01080
H          0.58617       -1.26110       -1.62859
H          2.32582       -1.16748       -1.97507
H          1.49404       -2.74039       -2.05099
H         -0.12462       -2.49658        0.46648
H          0.91654       -3.88571        0.07425
H          1.14486       -3.00495        1.60532
