28
1msa1ma1eda_43.log	Energy: -596520.9602549
S          1.90216       -0.46843       -0.03458
O          2.01780        0.56454       -1.08742
O          1.03403       -1.60342       -0.40744
O          1.50911        0.14476        1.28354
H          0.41729        1.30944        0.97625
C          3.53532       -1.13739        0.23642
H          4.19802       -0.32298        0.52950
H          3.47107       -1.88682        1.02548
H          3.87027       -1.59045       -0.69698
H         -2.20563       -2.09397       -0.26811
H         -1.33188       -1.20038        0.96792
H         -3.72759       -1.27555        1.51876
H         -3.25448        0.39275        1.17277
H         -4.65991       -1.35837       -0.71177
H         -5.20216        0.03642       -0.05809
H         -0.69628       -0.55225       -1.23244
H         -2.23380        0.00571       -1.54458
C         -2.06908       -1.09329        0.16670
C         -3.39733       -0.59573        0.71895
N         -1.53742       -0.14575       -0.81943
N         -4.36798       -0.44887       -0.36721
N         -0.37080        1.90015        0.57488
H         -0.94023        1.18363       -0.00792
C          0.15903        2.97892       -0.28739
H         -0.66610        3.48878       -0.78725
H          0.72658        3.68836        0.31593
H          0.82366        2.50980       -1.01415
H         -0.94515        2.25986        1.33269
