20
1msa1a1ma_09.log	Energy: -512460.8417007
S         -0.42019       -0.62355        0.18640
O         -0.96421       -0.16227        1.45572
O          0.66551       -1.60624        0.21550
O          0.06109        0.61935       -0.66580
H          1.11585        0.59133       -0.76858
C         -1.75595       -1.23461       -0.81148
H         -2.17462       -2.09500       -0.28783
H         -2.49128       -0.42944       -0.89811
H         -1.35513       -1.52854       -1.78117
N          2.62204        0.41426       -0.75744
H          2.70347       -0.59867       -0.81524
C          3.14497        0.88908        0.53287
H          4.21000        0.67446        0.66820
H          2.98571        1.96647        0.61022
H          2.58307        0.40228        1.33253
H          3.13373        0.81827       -1.53552
N         -2.91604        1.77134       -0.11811
H         -3.62815        2.48596       -0.02061
H         -2.09519        2.19508       -0.53914
H         -2.63969        1.46203        0.81003
