29
1msa2dma_24.log	Energy: -586438.3661590
S          0.07311       -0.77884       -0.01876
O          0.34917        0.65897       -0.37495
O         -0.53744       -0.94060        1.30386
O          1.32676       -1.58729       -0.20837
H          2.64934       -0.52694       -0.12314
C         -1.08702       -1.37046       -1.23185
H         -2.01048       -0.78617       -1.14180
H         -0.63993       -1.25089       -2.21912
H         -1.27218       -2.42432       -1.02014
N          2.95286        0.47517       -0.00115
C          3.99947        0.87310       -0.95541
C          3.26648        0.71215        1.42211
H          2.01699        0.90830       -0.22315
H          4.91407        0.31333       -0.75193
H          3.65303        0.65538       -1.96583
H          4.19500        1.94232       -0.85698
H          4.15843        0.14715        1.69801
H          3.43419        1.77788        1.58578
H          2.41606        0.37524        2.01647
N         -3.70390        0.58383       -0.41455
C         -2.97591        1.84497       -0.36484
C         -3.85946       -0.02523        0.90088
H         -4.61587        0.73189       -0.83225
H         -1.94074        1.65590       -0.06359
H         -2.95361        2.29564       -1.36135
H         -3.41329        2.57432        0.34029
H         -2.87199       -0.27752        1.30037
H         -4.36706        0.63311        1.62792
H         -4.43378       -0.95194        0.81067
