34
1msa1eda1tma_56.log	Energy: -645831.3091821
S         -0.04921        0.62188        0.08490
O         -0.89879        1.44696        0.94502
O          0.22183       -0.75153        0.60513
O          1.26455        1.28894       -0.27195
H          2.37903        0.46242        0.37896
C         -0.90395        0.41399       -1.46525
H         -1.87337       -0.05132       -1.25157
H         -1.04153        1.40291       -1.90470
H         -0.29554       -0.21424       -2.11685
H          3.87014       -2.10098       -0.03415
H          2.81640       -1.21925       -1.16186
H          5.23268       -0.77580       -1.67097
H          4.38431        0.69216       -1.17711
H          6.28362       -0.81756        0.45466
H          6.18571        0.79666        0.20837
H          2.09911       -0.93830        1.13209
H          3.59828       -0.16791        1.46299
C          3.55626       -1.10736       -0.36711
C          4.75056       -0.27587       -0.82089
N          2.90081       -0.40949        0.75708
N          5.63778       -0.04746        0.31947
N         -3.88785       -0.42421       -0.18010
C         -4.16900        0.97831        0.08444
H         -3.27362        1.45888        0.48767
H         -4.44757        1.48054       -0.84802
H         -4.99822        1.10866        0.80708
C         -5.03276       -1.09167       -0.76776
H         -5.31465       -0.59571       -1.70199
H         -4.78289       -2.13307       -0.99390
H         -5.91502       -1.08861       -0.09686
C         -3.43933       -1.10171        1.02650
H         -3.16409       -2.13425        0.79085
H         -2.55803       -0.59633        1.42827
H         -4.22385       -1.11997        1.80839
