28
1msa1ma1eda_144.log	Energy: -596511.6369570
S          1.70979       -0.51999       -0.08930
O          1.06671       -1.75026       -0.54827
O          1.19824       -0.01148        1.22907
O          1.70269        0.59278       -1.09673
H          0.90530        1.97232       -0.44943
C          3.43188       -0.90691        0.18876
H          3.48104       -1.68721        0.94856
H          3.85260       -1.26294       -0.75199
H          3.94743       -0.00758        0.52615
H         -2.67961       -1.43359       -1.59083
H         -1.15080       -0.56242       -1.41748
H         -1.39241       -2.15447        0.39078
H         -1.42137       -0.52341        1.03669
H         -3.77757       -2.22873        0.66837
H         -3.23106       -1.55422        2.04746
H         -3.14250        0.87693       -1.86553
H         -3.67464        0.48513       -0.36463
C         -2.14460       -0.68834       -0.97830
C         -1.99116       -1.23690        0.43291
N         -2.84030        0.60311       -0.93638
N         -3.31497       -1.40799        1.04795
N          0.51028        2.41755        0.41775
H          0.58898        1.57894        1.04838
C         -0.86943        2.93129        0.26030
H         -1.23161        3.28880        1.22511
H         -0.86449        3.75168       -0.45855
H         -1.51441        2.12067       -0.10632
H          1.16216        3.12799        0.74223
