28
1msa1ma1eda_93.log	Energy: -596516.5402288
S         -1.48542       -0.88896       -0.02688
O         -1.32274       -0.09384        1.22364
O         -1.09325       -2.29884        0.11047
O         -0.78739       -0.20208       -1.17043
C         -3.22276       -0.84928       -0.43372
H         -3.76658       -1.33169        0.37883
H         -3.53058        0.19113       -0.53986
H         -3.36451       -1.39211       -1.36839
H          2.47851       -0.75565        1.75556
H          1.28820       -1.66279        0.78659
H          3.59484       -2.03484       -0.09651
H          2.58466       -1.19444       -1.27218
H          4.69666        0.02663        0.34525
H          4.43404        0.14844       -1.26377
H          0.58116        0.61200        1.15907
H          1.93617        1.18932        0.31559
C          2.02576       -0.85638        0.76522
C          3.08388       -1.08570       -0.30404
N          1.30374        0.39976        0.45771
N          3.97388        0.07435       -0.36483
H          0.71594        0.28147       -0.40156
N         -0.07071        2.74851       -0.57504
H          0.17043        3.48575       -1.22881
C         -0.99593        3.24841        0.44584
H         -1.89639        3.73150        0.03965
H         -1.31735        2.40763        1.06713
H         -0.48229        3.97285        1.08556
H         -0.52322        2.00556       -1.10622
