28
1msa1ma1eda_97.log	Energy: -596515.8023887
S          1.94161        0.10171       -0.06056
O          3.08932        0.46488       -0.88582
O          1.86033       -1.30787        0.37734
O          0.61337        0.50606       -0.68875
H         -0.17487       -0.74354       -1.03010
C          2.02395        1.10062        1.42319
H          2.96186        0.86931        1.92916
H          2.00076        2.15152        1.13234
H          1.17587        0.85356        2.06350
H         -1.59236       -3.27226       -0.20167
H         -0.05057       -2.61505        0.45537
H         -2.14656       -2.02447        1.84425
H         -1.14978       -0.66284        1.32885
H         -3.83581       -1.17182        0.54457
H         -2.88201        0.18551        0.34530
H         -0.39004       -2.17089       -1.95115
H         -1.73306       -1.25101       -1.49811
C         -1.02845       -2.36697        0.04121
C         -1.82423       -1.44778        0.97095
N         -0.80959       -1.60722       -1.21658
N         -2.93210       -0.83335        0.24207
N         -1.79881        1.94644        0.38657
H         -1.65379        2.42166        1.27137
C         -2.33106        2.88192       -0.60534
H         -1.67430        3.73711       -0.81524
H         -2.49582        2.34998       -1.54666
H         -3.29882        3.26620       -0.26969
H         -0.88846        1.59726        0.08026
