35
1msa2tma_01.log	Energy: -635765.2180368
N         -0.20620        1.81849        0.00779
C          0.99970        2.67826        0.10326
H          1.41470        2.59084        1.10784
H          1.73805        2.31566       -0.61240
H          0.72274        3.71318       -0.11265
C         -0.69827        1.72097       -1.38732
H          0.07882        1.23117       -1.97656
H         -1.60368        1.11379       -1.37773
H         -0.90873        2.72498       -1.76544
C         -1.26917        2.23537        0.94729
H         -2.09086        1.52386        0.85089
H         -0.86748        2.21147        1.96129
H         -1.59971        3.24743        0.69928
H          0.11899        0.83810        0.30874
S          2.10979       -0.59837        0.02926
O          3.23604        0.04674        0.71162
O          1.89603       -0.17489       -1.37343
O          0.81362       -0.46842        0.80545
C          2.43256       -2.35549        0.00475
H          2.54129       -2.69771        1.03413
H          1.59778       -2.85706       -0.48570
H          3.35734       -2.51530       -0.55037
N         -2.61016       -0.74138        0.00529
C         -2.36459       -1.19764        1.36744
H         -1.29032       -1.18205        1.56795
H         -2.86853       -0.53303        2.07793
H         -2.74375       -2.22299        1.53583
C         -4.03185       -0.71893       -0.29280
H         -4.55109       -0.06147        0.41220
H         -4.19534       -0.33312       -1.30422
H         -4.49492       -1.72177       -0.22858
C         -1.88366       -1.56895       -0.94922
H         -2.05616       -1.20366       -1.96693
H         -0.81355       -1.50981       -0.73655
H         -2.20156       -2.62753       -0.90813
