29
1msa1ma1tma_15.log	Energy: -586441.7673243
S          0.91461       -1.17884        0.02748
O          0.53538       -2.58023       -0.17674
O          0.62929       -0.64227        1.37844
O          0.27986       -0.26533       -1.01887
H         -1.07902        0.05448       -0.51136
C          2.66634       -1.02459       -0.25869
H          3.17386       -1.60469        0.51272
H          2.88051       -1.43252       -1.24687
H          2.93490        0.03308       -0.20968
N          2.02036        2.27377       -0.70493
H          2.14079        3.05643       -1.33653
C          1.56705        2.70268        0.61235
H          0.65351        3.32253        0.61059
H          1.37191        1.81485        1.22134
H          2.35509        3.28018        1.10563
H          1.36651        1.61221       -1.11664
N         -2.07095        0.25345       -0.09140
C         -1.89005        1.29362        0.94709
H         -1.14213        0.92962        1.65326
H         -1.52297        2.20425        0.47194
H         -2.84537        1.48616        1.44270
C         -2.93689        0.70275       -1.19954
H         -2.50976        1.60450       -1.64011
H         -2.97697       -0.08209       -1.95558
H         -3.94197        0.91163       -0.82364
C         -2.53705       -1.02668        0.49719
H         -2.53737       -1.79086       -0.28041
H         -1.83271       -1.32039        1.27598
H         -3.54122       -0.89245        0.90817
