28
1msa1ma1eda_177.log	Energy: -596509.1954658
S          1.85576        0.07839       -0.18352
O          3.22794        0.16475       -0.64244
O          0.77802        0.26271       -1.16704
O          1.63276        1.10905        0.99416
H          0.78407        1.69138        0.82307
C          1.61535       -1.47857        0.63446
H          1.84625       -2.25586       -0.09563
H          2.31461       -1.52576        1.46958
H          0.57176       -1.55174        0.96215
H         -2.97551        2.29174       -0.74669
H         -3.70878        1.05955        0.28726
H         -2.12546        2.13598        1.68775
H         -1.34837        0.62549        1.21257
H         -0.38213        2.16968       -0.64578
H         -0.68211        3.35558        0.44878
H         -2.95367        0.21755       -1.93775
H         -1.40566        0.30617       -1.38417
C         -2.77815        1.34498       -0.21692
C         -1.70384        1.59283        0.83838
N         -2.38266        0.24945       -1.10166
N         -0.54171        2.35660        0.34326
N         -1.63926       -2.13426        0.74282
H         -2.28735       -2.42366        1.46744
C         -1.28544       -3.26593       -0.11112
H         -2.14289       -3.77738       -0.57236
H         -0.63850       -2.90883       -0.91818
H         -0.71777       -4.00515        0.46374
H         -2.09249       -1.41346        0.17723
