26
1msa1ma1dma_04.log	Energy: -561791.3764385
S          1.53051       -0.07316        0.09056
O          0.78881       -1.08150        0.92610
O          1.70945        1.21761        0.76896
O          0.91277        0.03677       -1.25941
C          3.15282       -0.78091       -0.14696
H          3.61739       -0.90103        0.83193
H          3.04054       -1.74532       -0.64240
H          3.73222       -0.09452       -0.76499
N         -1.73748       -0.87874        0.10479
C         -1.82006       -1.73565       -1.09261
C         -2.76963       -1.12919        1.12171
H         -0.76634       -0.99853        0.51954
H         -2.77706       -1.57585       -1.59483
H         -0.99177       -1.45931       -1.74693
H         -1.72560       -2.78336       -0.80058
H         -3.76062       -0.97683        0.68821
H         -2.68409       -2.15342        1.48989
H         -2.62155       -0.43539        1.95007
H         -1.76452        0.14193       -0.21621
N         -1.47716        1.73430       -0.78930
H         -0.57441        1.49460       -1.20896
C         -1.27602        2.70081        0.30055
H         -0.91052        3.67303       -0.05012
H         -2.21833        2.85372        0.83522
H         -0.52974        2.29800        0.98943
H         -2.06206        2.13050       -1.51791
