29
1msa1ma1tma_27.log	Energy: -586436.6934735
S          1.76789       -0.78085       -0.06018
O          3.12613       -1.22826        0.18793
O          1.45243       -0.19168       -1.36549
O          1.32353        0.25041        1.05846
H          1.20657        1.20319        0.63487
C          0.65568       -2.13024        0.25498
H          0.91428       -2.91673       -0.45554
H          0.82797       -2.47280        1.27573
H         -0.37761       -1.79567        0.11382
N          1.00078        2.52223       -0.15152
H          1.83568        3.09945       -0.11323
C         -0.19703        3.30399        0.17758
H         -0.37347        4.13379       -0.51558
H         -1.06708        2.64419        0.16034
H         -0.09751        3.70449        1.18857
H          0.95168        2.13845       -1.09429
N         -2.38629       -0.66361       -0.01943
C         -3.73642       -1.18472       -0.13895
H         -3.83130       -1.75905       -1.06488
H         -3.95362       -1.85157        0.70059
H         -4.50027       -0.38345       -0.15005
C         -2.20466        0.05872        1.22773
H         -2.45838       -0.58971        2.07153
H         -1.15760        0.35663        1.33567
H         -2.84158        0.96362        1.28634
C         -2.03221        0.16063       -1.16205
H         -0.97732        0.44393       -1.10353
H         -2.16582       -0.40703       -2.08697
H         -2.65117        1.07761       -1.22670
