34
1msa1eda1tma_24.log	Energy: -645837.1475302
S         -2.20677       -0.92133       -0.06333
O         -3.16345       -0.64486       -1.13970
O         -2.46674       -0.21094        1.20874
O         -0.77207       -0.68920       -0.49914
C         -2.28347       -2.67235        0.28476
H         -3.29776       -2.89929        0.61440
H         -2.04957       -3.21265       -0.63282
H         -1.56346       -2.90593        1.06924
H          2.72618       -1.93965       -0.83162
H          2.28607       -0.39294       -1.54701
H          4.70683       -0.59635       -1.52720
H          4.22583        0.68181       -0.39647
H          5.02211       -2.02820        0.38476
H          5.74160       -0.61742        0.79016
H          1.06886       -0.82556        0.49100
H          2.49032       -0.79580        1.34421
C          2.75013       -0.84928       -0.66479
C          4.20263       -0.40046       -0.56799
N          2.01029       -0.43723        0.52343
N          4.84916       -1.04627        0.57544
N         -0.33684        1.87217        0.01193
C          0.83721        2.35187       -0.74965
H          1.70481        1.78692       -0.40352
H          0.66516        2.16692       -1.81103
H          0.97085        3.42260       -0.57475
C         -1.59962        2.51237       -0.43201
H         -1.75663        2.28577       -1.48705
H         -2.42114        2.08917        0.14682
H         -1.52671        3.59181       -0.27800
C         -0.13982        2.00284        1.47676
H         -0.97913        1.50783        1.96759
H          0.79501        1.50218        1.73155
H         -0.09640        3.06355        1.73802
H         -0.44705        0.82600       -0.19237
