20
1msa1a1ma_21.log	Energy: -512451.2691887
S         -1.19014       -0.02893       -0.04516
O         -1.26013        1.03976        0.94368
O         -0.51124        0.20387       -1.30507
O         -2.72993       -0.44884       -0.37394
H         -3.30519        0.24121       -0.01357
C         -0.58943       -1.52439        0.67952
H          0.47967       -1.34293        0.88785
H         -1.15622       -1.71752        1.58988
H         -0.71979       -2.32417       -0.05006
N          2.46595       -0.60104        0.70943
H          2.32015        0.41130        0.65724
C          2.83730       -1.10284       -0.61240
H          3.75613       -0.66172       -1.02586
H          2.97039       -2.18914       -0.57536
H          2.02199       -0.89138       -1.31127
H          3.20763       -0.77302        1.37952
N          1.54287        2.25675        0.00995
H          1.16139        1.98127       -0.89081
H          2.02155        3.14309       -0.10459
H          0.74606        2.40091        0.62400
