29
1msa1ma1tma_02.log	Energy: -586448.1849201
S          1.84819       -0.29866       -0.00329
O          1.48344       -1.69130       -0.30199
O          1.21923        0.24761        1.22374
O          1.61657        0.62897       -1.17033
H          0.21609        1.29801       -1.00527
C          3.61539       -0.26446        0.25431
H          3.84291       -0.91300        1.10079
H          4.09724       -0.63336       -0.65131
H          3.91517        0.76269        0.46215
N         -0.75487        1.69741       -0.77592
H         -1.13311        2.14672       -1.60618
C         -0.65753        2.63263        0.36588
H         -1.65553        2.95195        0.67214
H         -0.15535        2.09784        1.17334
H         -0.06078        3.50024        0.08195
H         -1.37734        0.85863       -0.51235
N         -2.29003       -0.47372       -0.00169
C         -1.96681       -0.68519        1.41271
H         -0.88501       -0.78514        1.52958
H         -2.29872        0.18054        1.99466
H         -2.46668       -1.58400        1.80824
C         -3.71681       -0.23045       -0.18590
H         -4.02297        0.64772        0.39137
H         -3.92803       -0.04511       -1.24361
H         -4.32592       -1.08902        0.14161
C         -1.84047       -1.61190       -0.81059
H         -2.02853       -1.40523       -1.86888
H         -0.76784       -1.76950       -0.66683
H         -2.37881       -2.53333       -0.53526
