25
1msa1a1eda_29.log	Energy: -571859.6197248
S          1.50194       -0.22654       -0.10605
O          1.34783        0.43713        1.20530
O          1.12420        0.60619       -1.26282
O          0.79073       -1.56009       -0.11640
H         -0.53674       -1.46227        0.59418
C          3.22706       -0.63861       -0.30139
H          3.52590       -1.28022        0.52748
H          3.35015       -1.15190       -1.25508
H          3.79292        0.29342       -0.29173
H         -2.82157        0.25674        1.54193
H         -1.13364        0.75351        1.22215
H         -2.63989        1.33717       -0.68597
H         -1.35682        0.22472       -1.14615
H         -4.18659       -0.43828       -0.85731
H         -3.10960       -0.94602       -1.97668
H         -1.45439       -1.61149        2.03211
H         -2.19905       -1.89191        0.54920
C         -1.94456        0.09664        0.90767
C         -2.27859        0.31165       -0.56325
N         -1.51254       -1.32182        1.05961
N         -3.22411       -0.72671       -0.99470
N         -0.33095        2.90709        0.23405
H          0.31114        2.71812        0.99966
H         -0.30592        3.90409        0.04798
H          0.08074        2.42516       -0.56444
