35
1msa2tma_03.log	Energy: -635762.2373919
N         -0.15379        0.65477        0.05249
C         -0.33832       -0.53432        0.92164
H          0.24537       -1.35423        0.50215
H          0.04689       -0.30098        1.91517
H         -1.40284       -0.77327        0.95721
C         -0.90617        1.82166        0.55653
H         -0.60320        2.01715        1.58596
H         -0.66676        2.68975       -0.05940
H         -1.97440        1.59837        0.50766
C         -0.47961        0.34641       -1.35975
H         -0.31439        1.24405       -1.95773
H          0.20158       -0.43928       -1.68983
H         -1.52490        0.03555       -1.41724
H          0.90404        0.89669        0.08730
S          3.06742       -0.22006        0.07012
O          2.31519       -1.09079       -0.86385
O          3.33577       -0.80628        1.38727
O          2.39473        1.13566        0.16479
C          4.64595        0.12058       -0.69389
H          5.20860        0.78502       -0.03787
H          5.16568       -0.83060       -0.81247
H          4.47161        0.58779       -1.66312
N         -3.74317       -0.24084       -0.03061
C         -4.41438        0.64202       -0.97028
H         -4.30988        1.68191       -0.64464
H         -3.95683        0.54751       -1.96006
H         -5.49282        0.41961       -1.06853
C         -3.80078       -1.62467       -0.47477
H         -3.33686       -1.71965       -1.46137
H         -3.24765       -2.26323        0.22062
H         -4.83608       -2.00592       -0.54310
C         -4.28568       -0.09528        1.31039
H         -3.73084       -0.73218        2.00624
H         -4.18299        0.94248        1.64330
H         -5.35476       -0.37042        1.36980
