28
1msa1ma1eda_83.log	Energy: -596519.0810485
S         -1.60479        0.08337       -0.05541
O         -1.02652        0.65390       -1.28490
O         -1.00243        0.58846        1.19756
O         -1.60335       -1.42687       -0.07170
C         -3.33390        0.52689       -0.03508
H         -3.40042        1.61517       -0.02002
H         -3.79926        0.12636       -0.93575
H         -3.78855        0.10086        0.85923
H          2.27743       -3.22554       -0.06149
H          0.80713       -3.05116       -1.06212
H          2.66486       -1.40200       -1.68880
H          1.14475       -0.62383       -1.22953
H          3.60110       -0.60968        0.29686
H          2.35670        0.50755        0.22387
H          0.57816       -3.04411        1.52243
H          1.17334       -1.47700        1.34318
C          1.45502       -2.55860       -0.33497
C          1.98643       -1.21311       -0.84842
N          0.66331       -2.25748        0.88543
N          2.59560       -0.49520        0.26405
H         -0.32087       -1.91324        0.59008
N          1.32781        2.16282        0.03374
H          0.78979        2.04603       -0.82197
C          1.86153        3.51650        0.14457
H          1.09930        4.30755        0.09153
H          2.39014        3.62399        1.09658
H          2.58798        3.69382       -0.65454
H          0.65190        1.96630        0.77021
