31
1msa1dma1eda_157.log	Energy: -621170.5479242
S          1.67705       -1.08295       -0.06817
O          2.43121       -2.32756       -0.20231
O          1.16984       -0.79699        1.30601
O          0.51649       -0.98034       -1.04434
H         -0.72326       -1.31233       -0.21690
C          2.76854        0.25649       -0.51081
H          3.60647        0.23255        0.18721
H          3.11967        0.07271       -1.52681
H          2.24127        1.21182       -0.44906
H         -2.67155       -0.16749        1.76097
H         -1.38529        0.66103        0.85986
H         -3.60021        1.03513       -0.23563
H         -2.50826        0.12419       -1.28171
H         -4.78307       -0.98049        0.18955
H         -4.35835       -1.20711       -1.37377
H         -0.77117       -1.59896        1.39030
H         -2.09272       -2.15899        0.45942
C         -2.13305       -0.13036        0.80936
C         -3.09097        0.07009       -0.35647
N         -1.41723       -1.40878        0.61560
N         -3.99263       -1.07929       -0.43827
N          0.70693        3.02903       -0.17634
C          0.47563        2.67587        1.21505
C         -0.25622        2.44033       -1.09140
H          0.71684        4.03653       -0.28240
H          0.66211        1.60546        1.36298
H          1.17476        3.22148        1.85399
H         -0.55216        2.90257        1.55856
H         -0.11632        1.35326       -1.12490
H         -1.30865        2.65049       -0.81611
H         -0.08628        2.82328       -2.10111
