31
1msa1dma1eda_31.log	Energy: -621182.2748224
S          1.33902       -1.14023       -0.01239
O          0.67821       -0.72660        1.27386
O          2.47772       -0.26409       -0.35835
O          0.33566       -1.27835       -1.09284
H         -0.38465        1.20199       -0.79103
C          2.01775       -2.76206        0.29585
H          1.20419       -3.42974        0.57995
H          2.49397       -3.10423       -0.62327
H          2.74931       -2.67894        1.09975
H          1.66742        2.13522        1.09952
H          1.39856        3.82964        0.66703
H         -0.63502        2.69341        1.72301
H         -0.95444        3.37389        0.10584
H         -0.27763        0.53200        0.71586
H         -1.78619        1.05026        0.14056
H          1.87886        3.22172       -1.46563
H          2.00279        1.62655       -1.02211
C          1.12256        2.79969        0.41919
C         -0.38256        2.62633        0.66215
N          1.42737        2.46725       -0.96830
N         -0.76131        1.28973        0.16291
N         -3.20337       -0.05688       -0.02410
C         -2.96062       -1.04082        1.03514
C         -3.01304       -0.63256       -1.36012
H         -4.14871        0.30291        0.05881
H         -1.91043       -1.34854        1.00314
H         -3.15403       -0.58600        2.01035
H         -3.58746       -1.93846        0.93107
H         -1.97178       -0.95632       -1.46212
H         -3.66421       -1.50019       -1.54151
H         -3.22110        0.12663       -2.11916
