25
1msa1a1eda_55.log	Energy: -571854.7081103
S         -1.55149       -0.35694       -0.01031
O         -2.73020       -1.10774       -0.42813
O         -0.63933        0.04515       -1.13673
O         -0.73582       -1.03241        1.06146
H          0.64841       -1.65434        0.36738
C         -2.10962        1.16849        0.73050
H         -2.67747        1.71948       -0.02028
H         -2.74774        0.91223        1.57648
H         -1.23989        1.73874        1.06059
H          2.08019        0.78759       -0.83690
H          3.62137        0.68842        0.01949
H          3.26117       -1.39592       -1.11713
H          3.09006       -1.69552        0.63472
H          0.75740       -1.15436       -1.14104
H          1.31477       -2.70615       -0.77592
H          1.90439        1.62967        1.38506
H          1.03176        0.26980        1.35187
C          2.59120        0.31706        0.01838
C          2.66232       -1.18166       -0.22883
N          1.98771        0.62015        1.30501
N          1.29836       -1.73736       -0.46540
N          0.53321        2.91397       -0.63718
H         -0.20218        3.59843       -0.49366
H          0.09746        2.05669       -0.98054
H          1.12852        3.27561       -1.37536
