28
1msa1ma1eda_57.log	Energy: -596520.6995140
S         -1.63455       -0.33313       -0.10097
O         -1.37977       -1.78366       -0.05919
O         -1.01794        0.35231       -1.26385
O         -1.25829        0.33961        1.19197
C         -3.39869       -0.10036       -0.24632
H         -3.72273       -0.57290       -1.17386
H         -3.87606       -0.57100        0.61325
H         -3.60432        0.96997       -0.26673
H          2.67590       -1.70924        1.47155
H          0.94107       -2.09799        1.31977
H          1.95159       -2.60995       -0.78043
H          0.97417       -1.16734       -1.00595
H          3.90052       -1.24796       -0.85906
H          2.94423       -0.54275       -1.97945
H          1.78646        0.20320        2.28878
H          1.65193        0.70416        0.66229
C          1.73856       -1.43408        0.97933
C          1.88506       -1.54181       -0.53185
N          1.38606       -0.04413        1.38835
N          3.02588       -0.75124       -0.99138
H          0.33202        0.06922        1.44485
N          1.31561        1.98378       -0.44722
H          2.09000        2.27270       -1.03424
C          0.64609        3.12823        0.17730
H          0.26992        3.86378       -0.54468
H         -0.20319        2.75190        0.75406
H          1.33449        3.63636        0.85979
H          0.63589        1.48112       -1.02489
