28
1msa1ma1eda_111.log	Energy: -596514.8510906
S         -1.92686       -0.29928       -0.02397
O         -1.40503       -1.33628       -0.92418
O         -2.21666        1.00418       -0.70497
O         -1.06856       -0.06912        1.18315
H         -0.21665        1.46446        0.97796
C         -3.49350       -0.88749        0.59353
H         -4.15873       -1.02955       -0.25841
H         -3.31809       -1.83387        1.10539
H         -3.89746       -0.14435        1.28096
H          4.08474       -1.72011        0.00713
H          3.66363       -1.16994        1.63429
H          1.79829       -2.36944        0.60267
H          1.35245       -0.69842        0.92904
H          2.10704       -1.72694       -1.70606
H          0.63927       -1.20004       -1.22157
H          4.74274        0.57592        0.35319
H          3.52267        0.53228       -0.73926
C          3.45603       -1.00848        0.57109
C          1.99087       -1.32812        0.30200
N          3.75231        0.38705        0.24053
N          1.64302       -1.06006       -1.09524
N         -0.13914        2.29351        0.34410
H         -1.00062        2.12593       -0.23505
C          1.09510        2.23675       -0.47727
H          1.08668        3.05926       -1.19279
H          1.96895        2.28308        0.17293
H          1.11502        1.27477       -0.99723
H         -0.22250        3.15567        0.87644
