34
1msa1eda1tma_27.log	Energy: -645838.2406893
S          2.12710       -0.67565        0.05849
O          0.95310       -1.20121       -0.68353
O          2.11931       -0.97664        1.49462
O          2.31743        0.79560       -0.23024
C          3.57145       -1.45022       -0.64979
H          3.49097       -2.52354       -0.47554
H          3.59400       -1.23321       -1.71768
H          4.45303       -1.04558       -0.15240
H         -4.42161       -1.79514        0.48112
H         -4.46493       -1.21568       -1.19037
H         -2.64380       -2.83408       -0.85200
H         -2.02053       -1.25516       -1.32294
H         -1.87690       -2.40473        1.35384
H         -0.68175       -1.76905        0.41651
H         -4.63967        0.60010        0.42681
H         -3.14368        0.22029        0.98141
C         -3.88453       -1.18051       -0.26177
C         -2.51050       -1.79695       -0.50835
N         -3.74047        0.21472        0.15799
N         -1.66420       -1.67974        0.67679
N          0.00895        1.98941       -0.05970
C         -0.79817        1.49720       -1.20594
H         -0.46529        2.00576       -2.11182
H         -0.60393        0.42766       -1.29690
H         -1.86082        1.66919       -1.01802
C         -0.53378        1.51021        1.23690
H         -0.75087        0.44171        1.15942
H          0.21583        1.67896        2.01108
H         -1.45258        2.05923        1.45944
C          0.18832        3.45455       -0.07349
H          0.79461        3.74490        0.78564
H          0.70274        3.74077       -0.99162
H         -0.78770        3.94375       -0.02460
H          0.98368        1.53585       -0.15485
