25
1msa1a1eda_60.log	Energy: -571852.0876508
S         -1.17142       -0.67551       -0.25456
O         -0.29605       -0.76538       -1.41382
O         -2.61746       -0.67411       -0.46387
O         -0.78797        0.62182        0.57864
H         -1.59008        1.28196        0.59925
C         -0.73283       -1.97174        0.87802
H         -1.01962       -2.90955        0.40003
H          0.35059       -1.94380        1.02884
H         -1.28452       -1.82588        1.80612
H          3.98833        1.02395       -0.44087
H          3.22237        2.01979        0.79066
H          3.41752       -0.25400        1.63985
H          1.72085        0.16574        1.42453
H          1.79300       -1.10968       -0.65872
H          3.31421       -1.60262       -0.29082
H          1.97611        0.99128       -1.66224
H          1.13689        1.69464       -0.46809
C          3.03998        1.20109        0.08248
C          2.65062       -0.05089        0.88242
N          2.05760        1.65208       -0.89636
N          2.44199       -1.27235        0.10874
N         -2.89609        2.16375        0.49383
H         -3.28190        2.53557        1.35548
H         -3.54805        1.48081        0.11177
H         -2.81212        2.92621       -0.17132
