33
1msa2eda_160.log	Energy: -655902.1168894
S         -2.05823       -0.73731        0.02784
O         -1.39573       -1.78226        0.80431
O         -1.61934       -0.60349       -1.38755
O         -1.99803        0.62868        0.69466
H         -1.31424        1.56239       -0.28995
C         -3.79643       -1.14088       -0.01015
H         -3.90077       -2.10798       -0.50271
H         -4.15265       -1.19596        1.01870
H         -4.32748       -0.36646       -0.56370
H          3.28726        0.35892       -0.54088
H          3.60975       -0.80134       -1.82435
H          1.26093       -0.98630       -1.14733
H          2.11212       -2.45994       -0.70209
H          1.54087       -0.27841        1.18272
H          0.82754       -1.73592        1.14155
H          4.20284       -1.32282        0.98084
H          4.73920       -2.16340       -0.30219
C          3.37663       -0.71688       -0.75645
C          2.03308       -1.39146       -0.46588
N          4.50538       -1.22678        0.01391
N          1.70307       -1.25773        0.94675
H          1.12787        1.15749       -0.87324
H          1.11514        2.76588       -1.63013
H          1.93932        3.10914        0.57098
H          0.26888        3.67337        0.62637
H          0.96242        2.15507        2.49274
H         -0.24819        1.43019        1.63706
H         -1.21097        2.84467       -1.43910
H         -0.94029        1.22951       -1.82373
C          0.67888        2.15111       -0.83974
C          0.89938        2.77008        0.53469
N         -0.77289        1.97817       -1.13537
N          0.70557        1.78544        1.58569
