26
1msa1a1tma_07.log	Energy: -561779.6463971
S         -1.13410       -0.31204        0.04786
O         -0.58415       -0.69121        1.33966
O         -1.30432        1.11416       -0.23878
O         -2.53175       -1.03316       -0.17291
H         -3.28897       -0.34104       -0.11250
C         -0.15345       -1.05866       -1.22617
H          0.85806       -0.64462       -1.11237
H         -0.15367       -2.13672       -1.06269
H         -0.59024       -0.80695       -2.19216
N         -4.29595        0.92666       -0.01813
H         -3.61340        1.67408       -0.13283
H         -4.74255        1.04018        0.88602
H         -5.00500        1.01951       -0.73756
N          2.69778        0.17794       -0.12459
C          3.90243        0.34590       -0.91662
H          4.16483       -0.60003       -1.40058
H          3.73334        1.09458       -1.69663
H          4.76737        0.67281       -0.30749
C          2.27647        1.43613        0.47330
H          2.08400        2.17416       -0.31075
H          1.35012        1.28696        1.03304
H          3.04036        1.84654        1.16120
C          2.86844       -0.84990        0.89123
H          1.92695       -0.99025        1.42899
H          3.14071       -1.79737        0.41493
H          3.65929       -0.59058        1.62040
