28
1msa1ma1eda_45.log	Energy: -596521.9797394
S         -1.22148       -1.06432       -0.00275
O          0.04348       -1.42447        0.72058
O         -0.93197       -0.45151       -1.32230
O         -2.13260       -0.25620        0.83466
C         -2.04501       -2.61750       -0.31443
H         -1.39567       -3.23435       -0.93597
H         -2.23543       -3.09910        0.64476
H         -2.98145       -2.40370       -0.83023
H          1.30208        0.15950       -1.26926
H          2.26653        1.64578       -1.15106
H          3.61183       -0.50382       -1.43589
H          4.11197        0.52277       -0.08838
H          2.24738       -1.71617        0.34822
H          3.87204       -1.76745        0.65642
H          0.51216        1.63884        0.44523
H          0.93387        0.07287        0.95769
C          2.03656        0.69592       -0.66211
C          3.30391       -0.12745       -0.44795
N          1.34490        0.97639        0.62216
N          3.07222       -1.15564        0.55487
H          1.97829        1.33756        1.33198
N         -0.95837        2.33112       -0.03721
H         -1.07381        1.97688       -0.98555
C         -1.28840        3.75392        0.05124
H         -2.31578        3.98182       -0.25830
H         -1.16176        4.09328        1.08283
H         -0.60559        4.33328       -0.57663
H         -1.60800        1.75614        0.50532
