33
1msa2eda_112.log	Energy: -655911.1164984
S          2.36146       -0.15061       -0.04470
O          2.21840       -0.04164        1.42925
O          2.78620        1.08973       -0.70826
O          1.09305       -0.71385       -0.64320
H         -0.04841       -0.05271        0.35515
C          3.61438       -1.38422       -0.35369
H          3.71129       -1.51219       -1.43198
H          4.54873       -1.01996        0.07441
H          3.31007       -2.31604        0.12290
H         -1.67879       -0.83198       -1.21256
H         -2.39881       -2.36908       -1.68447
H         -4.22413       -1.05668       -0.96440
H         -3.90353       -2.16248        0.37765
H         -3.26200        0.68816        0.22114
H         -4.06134       -0.12066        1.41585
H         -0.37787       -2.42552       -0.13904
H         -1.44557       -2.10866        1.05802
C         -2.18217       -1.73236       -0.81950
C         -3.49961       -1.31089       -0.17951
N         -1.35880       -2.48604        0.11989
N         -3.29692       -0.18571        0.75271
H         -0.85419        2.56996        1.51152
H          0.77372        2.14567        0.92414
H         -0.25888        3.26699       -0.89079
H         -0.22338        1.55897       -1.30370
H         -2.57438        3.10793       -0.49611
H         -2.37620        2.16773       -1.80834
H         -0.01943        0.27063        1.95010
H         -1.53667        0.25955        1.15442
C         -0.29512        1.96501        0.79133
C         -0.69274        2.29099       -0.63947
N         -0.52696        0.52842        1.10140
N         -2.15062        2.24402       -0.82202
