29
1msa2dma_22.log	Energy: -586439.5195672
S         -1.43732       -0.83932        0.04695
O         -2.88810       -0.83410       -0.13894
O         -0.95050       -0.21773        1.30124
O         -0.69206       -0.23891       -1.13282
H         -0.26421        1.14417       -0.76861
C         -0.90502       -2.54498        0.06756
H         -1.39243       -3.03588        0.91050
H         -1.20701       -3.00797       -0.87206
H          0.17947       -2.57284        0.18164
N         -0.08007        2.18432       -0.48688
C          0.91828        2.23726        0.60884
C         -1.39447        2.76568       -0.12593
H          0.29076        2.64817       -1.31439
H          0.49513        1.68996        1.45181
H          1.83248        1.73407        0.27622
H          1.11042        3.27906        0.87594
H         -1.77837        2.20416        0.72690
H         -1.27684        3.82084        0.12849
H         -2.07797        2.64583       -0.96681
N          3.10000       -0.15556       -0.06103
C          2.66358       -0.84597       -1.26997
C          2.57808       -0.77762        1.15090
H          4.11365       -0.14797       -0.02467
H          1.57610       -0.76035       -1.36440
H          3.12196       -0.37966       -2.14699
H          2.92230       -1.91940       -1.27384
H          1.48986       -0.65652        1.19025
H          2.80543       -1.85559        1.21921
H          2.99946       -0.28258        2.03078
