31
1msa1dma1eda_55.log	Energy: -621179.4418901
S         -2.08729       -0.29955       -0.08728
O         -2.29993        1.12608       -0.38307
O         -1.65192       -0.56227        1.31651
O         -1.16926       -0.97410       -1.06221
C         -3.66746       -1.11095       -0.27669
H         -3.53713       -2.17490       -0.07841
H         -4.36195       -0.66707        0.43708
H         -4.01049       -0.94747       -1.29858
H          2.59190       -1.45548        1.73813
H          1.67902       -2.74121        0.93434
H          3.79033       -2.53166       -0.21531
H          2.52370       -1.92336       -1.28295
H          4.41669       -0.26702        0.21356
H          4.12474       -0.28280       -1.39302
H          0.23732       -0.82915        1.30416
H          1.26294        0.23382        0.48223
C          2.08874       -1.73560        0.80723
C          3.07006       -1.71251       -0.35749
N          0.97603       -0.80121        0.58135
N          3.69129       -0.39638       -0.48422
H          0.40648       -1.02157       -0.26698
N          1.33690        1.89861        0.21038
C          0.42907        2.66357        1.06982
C          1.01070        2.03717       -1.21168
H          2.29684        2.19326        0.36046
H         -0.58937        2.29497        0.91840
H          0.70350        2.51488        2.11794
H          0.44800        3.74065        0.84728
H         -0.00652        1.67182       -1.37785
H          1.06697        3.08012       -1.55592
H          1.70634        1.42999       -1.79759
