26
1msa1ma1dma_12.log	Energy: -561784.1783615
S          1.84168       -0.07965       -0.09628
O          3.03620        0.67980       -0.46131
O          0.77839       -0.10478       -1.15689
O          1.23643        0.31491        1.21987
H         -0.23452        1.18595        0.89877
C          2.34253       -1.78338        0.11098
H          2.75758       -2.13145       -0.83530
H          3.09965       -1.81655        0.89479
H          1.47241       -2.37732        0.39297
N         -2.83033       -0.67303        0.40465
C         -1.79903       -1.69282        0.63020
C         -3.46609       -0.81177       -0.90528
H         -3.53631       -0.73984        1.13085
H         -1.00281       -1.55649       -0.10922
H         -1.35836       -1.55796        1.62085
H         -2.19330       -2.71556        0.54342
H         -2.71256       -0.65536       -1.68386
H         -3.91160       -1.80504       -1.06229
H         -4.24614       -0.05470       -1.02132
N         -0.96981        1.43244        0.19371
H         -0.49699        1.05390       -0.65491
C         -1.26233        2.87215        0.12163
H         -1.97056        3.06486       -0.68507
H         -1.68941        3.20787        1.06713
H         -0.33636        3.41481       -0.06982
H         -1.80525        0.81686        0.36634
