23
1msa2ma_35.log	Energy: -537107.8869527
S          1.40724       -0.08781        0.06698
O          0.74231       -0.07990        1.35334
O          1.10543       -1.14264       -0.89547
O          3.01426       -0.16186        0.32564
H          3.32939       -1.00568       -0.02883
C          1.26843        1.50682       -0.68188
H          0.18831        1.66821       -0.84788
H          1.67285        2.23914        0.01759
H          1.82779        1.49701       -1.61706
N         -1.92962        1.55995       -0.70335
H         -2.55526        2.07496       -1.31358
C         -2.20726        1.87202        0.69841
H         -3.23152        1.63449        1.02212
H         -1.51471        1.30882        1.33071
H         -2.03224        2.93660        0.88502
H         -2.08395        0.56032       -0.87298
N         -2.00942       -1.51920       -0.77518
H         -2.57696       -2.09163       -1.39037
C         -2.22384       -1.88932        0.62481
H         -2.03459       -2.94947        0.84579
H         -1.56037       -1.29060        1.25370
H         -3.25527       -1.65892        0.90841
H         -1.03611       -1.66553       -1.03078
