26
1msa1ma1dma_33.log	Energy: -561776.1270830
S         -0.47124       -0.81241       -0.19382
O          0.51788       -1.11985       -1.21642
O         -1.77132       -1.48287       -0.25390
O         -0.72177        0.74698       -0.16085
H         -1.74453        0.95732       -0.32832
C          0.26753       -1.09275        1.39768
H          0.44142       -2.16663        1.48132
H          1.21702       -0.54639        1.42042
H         -0.42734       -0.75431        2.16607
N          2.95854        0.33060        0.12648
C          4.37621        0.01678        0.15652
C          2.69645        1.74836       -0.06358
H          2.49799       -0.19682       -0.61066
H          4.83731        0.48714        1.03247
H          4.51491       -1.06421        0.24567
H          4.92362        0.36552       -0.73725
H          3.05093        2.30579        0.81134
H          3.19379        2.17082       -0.95465
H          1.61972        1.90912       -0.15963
N         -3.24400        1.12564       -0.52702
H         -3.53025        2.00879       -0.93828
C         -3.92834        0.88377        0.75193
H         -5.01946        0.88199        0.66005
H         -3.60208       -0.08617        1.13192
H         -3.63353        1.65532        1.46642
H         -3.47080        0.38654       -1.18801
