31
1msa1dma1eda_79.log	Energy: -621176.8985754
S          0.30416        1.59284        0.00803
O          1.57616        2.28996        0.25376
O         -0.33429        1.03942        1.22622
O          0.46444        0.52131       -1.05128
H          1.58464       -0.38261       -0.71891
C         -0.85872        2.73656       -0.70573
H         -1.77548        2.17997       -0.91334
H         -1.03472        3.52774        0.02399
H         -0.42496        3.14409       -1.61892
H         -3.52312       -1.90704        0.76553
H         -3.73318       -1.59789       -0.96409
H         -1.79836       -2.96075       -0.71866
H         -1.23146       -1.34025       -1.16568
H         -0.61097       -0.95448        1.07219
H         -1.19884       -2.40523        1.56364
H         -3.97255        0.41861        0.40572
H         -2.37263        0.36120        0.76131
C         -3.09697       -1.36751       -0.10035
C         -1.69763       -1.92642       -0.36686
N         -3.07418        0.08231        0.07753
N         -0.78088       -1.91704        0.77635
N          2.41349       -1.03625       -0.42385
C          2.07749       -2.43141       -0.78859
C          2.64583       -0.83554        1.02772
H          3.22634       -0.71144       -0.94501
H          1.14668       -2.67728       -0.26664
H          1.92668       -2.48639       -1.86746
H          2.88663       -3.10059       -0.48734
H          1.75165       -1.17035        1.55325
H          3.51444       -1.41575        1.34596
H          2.79326        0.23024        1.20892
