26
1msa1ma1dma_30.log	Energy: -561776.0254673
S          0.62086       -0.98586        0.06690
O          0.21938       -0.91636        1.46426
O          1.96608       -1.47812       -0.23738
O          0.45514        0.43950       -0.60982
H          1.41057        0.88606       -0.70551
C         -0.59069       -1.92420       -0.82771
H         -0.61403       -2.91689       -0.37644
H         -1.55129       -1.40829       -0.71632
H         -0.28310       -1.97874       -1.87177
N         -2.70013        0.52392       -0.14783
C         -2.98366        0.42541        1.27662
C         -3.72458        1.24655       -0.88132
H         -1.79746        0.97006       -0.28197
H         -3.87965       -0.18728        1.42741
H         -2.14388       -0.05998        1.77980
H         -3.16314        1.40482        1.75438
H         -4.66582        0.68695       -0.84255
H         -3.92160        2.25750       -0.48183
H         -3.43431        1.34072       -1.93158
N          2.86400        1.34071       -0.69477
H          3.33208        0.46196       -0.90886
C          3.21595        1.78466        0.66302
H          4.29016        1.95015        0.79425
H          2.68310        2.71131        0.88549
H          2.88741        1.02384        1.37418
H          3.14314        2.02455       -1.39102
