25
1msa1a1eda_35.log	Energy: -571857.8256934
S         -1.01357       -0.64487        0.12961
O         -0.83155        0.26604        1.28120
O         -0.36188       -1.96070        0.29018
O         -0.55397        0.00707       -1.16171
H          0.92235       -0.45584       -1.29015
C         -2.76364       -0.89592       -0.07145
H         -3.22173        0.08293       -0.23125
H         -2.91755       -1.55282       -0.92758
H         -3.13574       -1.35961        0.84270
H          3.83205        0.11140       -0.75677
H          2.72045        1.10037       -1.74325
H          2.98316        1.94875        0.64824
H          1.31231        1.56391        0.21386
H          2.85751        0.28556        2.21973
H          1.24986        0.09802        1.84280
H          2.28555       -1.36616       -1.82934
H          1.88847       -1.26809       -0.20518
C          2.79749        0.44550       -0.87248
C          2.29808        1.12899        0.40697
N          1.94585       -0.74848       -1.09721
N          2.19657        0.13824        1.46984
N         -2.45439        2.43600       -0.36014
H         -1.81720        2.10762       -1.08018
H         -2.00799        2.23148        0.53002
H         -2.56294        3.43944       -0.45047
