25
1msa1a1eda_28.log	Energy: -571861.4928299
S          1.66641       -0.24898       -0.07122
O          1.12035       -1.42041       -0.76456
O          1.08443       -0.02896        1.29330
O          1.59597        1.01539       -0.87396
H          0.44441        2.12122       -0.12161
C          3.40569       -0.55875        0.19171
H          3.49852       -1.46040        0.79758
H          3.87188       -0.70337       -0.78327
H          3.84155        0.29889        0.70416
H         -2.76131       -0.51713       -1.78340
H         -1.09433       -0.00761       -1.45888
H         -1.61048       -2.05306       -0.22792
H         -1.27834       -0.74199        0.88217
H         -3.94095       -1.80225        0.26472
H         -3.23303       -1.61541        1.72167
H         -2.90740        1.75844       -1.27991
H         -3.35231        0.99695        0.10534
C         -2.08666       -0.11868       -1.01198
C         -2.00549       -1.10234        0.14849
N         -2.56302        1.18828       -0.51336
N         -3.31791       -1.20482        0.79921
N         -0.26402        2.20875        0.64233
H         -0.27771        3.13027        1.06622
H          0.08565        1.47226        1.29076
H         -1.22130        1.91170        0.25699
