31
1msa1dma1eda_97.log	Energy: -621173.9458880
S         -0.63158        1.40941       -0.16186
O          0.13528        1.15430       -1.39164
O         -0.00826        0.89737        1.07687
O         -2.06317        0.92820       -0.27591
H         -2.22505       -0.49525        0.06341
C         -0.77697        3.17882        0.00743
H          0.23029        3.58571        0.10205
H         -1.26601        3.56907       -0.88503
H         -1.36389        3.39431        0.90018
H          1.24198       -1.14599        0.56166
H          2.53731       -2.29293        0.20794
H          3.96122       -0.44346       -0.60814
H          2.58317        0.65791       -0.58531
H          2.54200        0.56744        1.74855
H          3.75853       -0.53347        1.82729
H          1.07293       -0.73495       -1.79753
H          2.16404       -1.91952       -2.11632
C          2.05323       -1.37034       -0.13972
C          3.03777       -0.19346       -0.06906
N          1.45871       -1.61476       -1.45297
N          3.38155        0.23516        1.28159
N         -2.32171       -1.56075        0.31118
C         -1.69639       -1.78633        1.63574
C         -1.71804       -2.35508       -0.78775
H         -3.31954       -1.75803        0.36480
H         -0.68625       -1.37771        1.60301
H         -2.26403       -1.23978        2.38896
H         -1.68407       -2.85407        1.86276
H         -0.64706       -2.13515       -0.86707
H         -1.86431       -3.41965       -0.59226
H         -2.20424       -2.07331       -1.72222
