33
1msa2eda_62.log	Energy: -655914.0970868
S          1.88454       -0.58664       -0.17228
O          2.07351       -2.01723       -0.41424
O          1.09348       -0.26985        1.05296
O          1.31704        0.15346       -1.35238
H         -0.04622        0.91695       -1.13363
C          3.49674        0.14028        0.08221
H          3.95201       -0.34051        0.94856
H          4.09308       -0.03835       -0.81283
H          3.36663        1.20951        0.25363
H         -1.68121        2.02698        1.27008
H         -1.34065        3.74934        1.10198
H         -2.23001        3.00785       -0.97578
H         -0.49346        3.34635       -1.21598
H         -1.73970        0.65376       -0.80378
H         -1.19565        1.29545       -2.25598
H          0.57432        2.98686        2.05803
H          0.65665        1.60477        1.18128
C         -1.00669        2.75479        0.78807
C         -1.21362        2.69127       -0.72096
N          0.39178        2.59211        1.14333
N         -1.03297        1.31458       -1.25054
H         -3.65383       -2.37355       -0.02451
H         -2.94087       -1.83250       -1.55657
H         -1.41343       -3.34945       -0.24075
H         -0.70179       -1.78505       -0.57707
H         -1.37277       -2.83145        1.98320
H         -0.39095       -1.57015        1.56978
H         -3.93005       -0.03075       -0.12176
H         -2.71471       -0.35253        0.94130
C         -2.85532       -1.76094       -0.46654
C         -1.49155       -2.28183       -0.00489
N         -2.96980       -0.35298       -0.05052
N         -1.30325       -1.99652        1.41618
