33
1msa2eda_108.log	Energy: -655911.6323802
S          1.73423       -0.93004       -0.12742
O          0.73829       -1.09497       -1.19846
O          1.15799       -0.84997        1.23491
O          2.65569        0.23922       -0.37662
H          2.03905        1.48521        0.23817
C          2.80009       -2.36050       -0.16764
H          3.26124       -2.41608       -1.15379
H          3.55648       -2.24976        0.60930
H          2.18345       -3.24057        0.01723
H         -4.36958       -1.16881        0.42647
H         -3.92879       -1.95438       -1.08177
H         -2.38657       -2.72328        0.59879
H         -1.48990       -1.66339       -0.49668
H         -2.33865       -1.00747        2.21025
H         -0.84416       -0.92928        1.52572
H         -3.22247        0.78658       -0.34815
H         -2.87180        0.06738       -1.76456
C         -3.59448       -1.21032       -0.34986
C         -2.27518       -1.67863        0.26667
N         -3.55275        0.09163       -1.01047
N         -1.84116       -0.79114        1.35188
H          0.46855        3.92418       -0.45777
H          1.20004        2.69664       -1.53033
H         -1.33622        2.44955       -1.26922
H         -0.42386        1.00862       -0.80404
H         -1.82652        2.79751        0.99534
H         -1.52504        1.15574        1.10610
H          2.18765        3.08288        0.84801
H          0.84443        2.16821        1.29312
C          0.66553        2.85709       -0.59257
C         -0.63609        2.04733       -0.52663
N          1.51625        2.38863        0.53285
N         -1.13662        2.07190        0.84261
