35
1msa2tma_10.log	Energy: -635758.5394284
N          1.28394        1.93985        0.05864
C          0.49762        1.81962       -1.19367
H          1.17942        1.59377       -2.01396
H         -0.20461        0.99270       -1.08431
H         -0.03678        2.75511       -1.37901
C          0.40561        2.08446        1.24283
H         -0.21834        1.19140        1.30446
H          1.02890        2.14847        2.13575
H         -0.20101        2.98830        1.14066
C          2.30158        3.00618       -0.02884
H          2.89376        3.00666        0.88709
H          2.95384        2.80035       -0.87835
H          1.81374        3.97599       -0.15773
S          1.39486       -1.37388       -0.06105
O          1.17230       -1.59902       -1.49392
O          0.17807       -1.02879        0.70815
O          2.47726       -0.34186        0.19756
H          1.81646        0.98899        0.16365
C          2.05160       -2.88333        0.62765
H          1.30720       -3.66551        0.47599
H          2.97504       -3.12483        0.10115
H          2.23815       -2.72822        1.69015
N         -3.63624       -0.20929       -0.09325
C         -3.39922        1.20033       -0.31815
H         -3.63770        1.45823       -1.35497
H         -4.03958        1.79883        0.33817
H         -2.34606        1.49387       -0.12546
C         -3.34267       -0.57207        1.28403
H         -3.96012        0.02669        1.96171
H         -3.58351       -1.62675        1.44599
H         -2.27744       -0.42809        1.54146
C         -2.87060       -1.02962       -1.02308
H         -3.12098       -2.08355       -0.87029
H         -3.13617       -0.76566       -2.05173
H         -1.78056       -0.92451       -0.89022
