26
1msa1ma1dma_06.log	Energy: -561788.8807380
S         -1.55291       -0.26447       -0.02794
O         -1.28804       -1.57249        0.58905
O         -0.67611        0.03193       -1.19427
O         -1.51886        0.86990        0.95945
H         -0.00014        1.40250        1.04730
C         -3.22986       -0.29284       -0.63935
H         -3.30306       -1.09239       -1.37697
H         -3.89493       -0.48481        0.20278
H         -3.44872        0.67312       -1.09432
N          1.99701       -0.67973       -0.11740
C          2.02939       -1.78552        0.84049
C          3.19145       -0.60617       -0.95165
H          1.16617       -0.77574       -0.70793
H          2.79847       -1.59563        1.59766
H          1.05118       -1.86625        1.31970
H          2.25461       -2.74579        0.35493
H          4.06335       -0.36995       -0.33176
H          3.39557       -1.54998       -1.47807
H          3.07237        0.18520       -1.69703
N          1.01457        1.67148        0.86802
H          1.42793        2.05743        1.71261
C          1.06443        2.61388       -0.27016
H          2.10243        2.83788       -0.52179
H          0.56626        2.12310       -1.10786
H          0.53473        3.53305       -0.01789
H          1.51092        0.74673        0.58161
