33
1msa2eda_155.log	Energy: -655903.3794321
S          1.56893       -1.27979        0.04580
O          2.58245       -2.30692       -0.10902
O          0.83115       -0.84589       -1.14961
O          2.17894       -0.00808        0.73616
H          2.08134        0.88166        0.11403
C          0.39471       -1.82272        1.26710
H         -0.06625       -2.73757        0.89414
H          0.93418       -2.00829        2.19602
H         -0.36511       -1.04978        1.39072
H         -4.39872       -0.34062       -0.31144
H         -3.54725        1.21035       -0.28039
H         -2.73835       -0.12735       -2.15063
H         -1.44481        0.09178       -0.96326
H         -2.90646       -2.37576       -1.41985
H         -1.29174       -2.08537       -1.36053
H         -3.62678        0.14339        1.92283
H         -2.72805       -1.09115        1.32537
C         -3.41978        0.13236       -0.12625
C         -2.40757       -0.39553       -1.13563
N         -2.92475       -0.09729        1.23126
N         -2.18748       -1.83048       -0.95607
H         -0.72084        2.02099       -0.86792
H         -1.03286        3.48088        0.07001
H          0.96253        3.88600       -1.11728
H          1.46979        3.57656        0.55718
H          1.52443        1.56039       -1.59573
H          2.82956        2.37074       -1.02281
H         -1.26854        1.36251        1.36349
H          0.35794        1.22606        1.32433
C         -0.36856        2.61230       -0.00309
C          1.02761        3.12184       -0.33383
N         -0.40268        1.89418        1.26060
N          1.91125        2.01628       -0.76880
