28
1msa1ma1eda_101.log	Energy: -596517.0381343
S         -1.52089       -0.53038        0.00670
O         -0.73674       -0.33637        1.25186
O         -1.50300       -1.91127       -0.50043
O         -1.10719        0.47169       -1.04155
C         -3.21565       -0.12082        0.38862
H         -3.56690       -0.82765        1.14072
H         -3.24847        0.89878        0.77298
H         -3.80062       -0.21100       -0.52681
H          0.81220       -1.76464       -0.94512
H          2.28829       -1.59466       -1.91250
H          2.49670       -2.71975        0.43243
H          3.68861       -1.46338        0.06251
H          1.22979       -0.92946        1.60828
H          2.79646       -0.90177        2.16894
H          0.52814        0.40018       -1.17012
H          1.76511        0.53006       -0.05914
C          1.79382       -1.28552       -0.99079
C          2.62414       -1.64438        0.25099
N          1.55416        0.18470       -1.01309
N          2.20938       -0.78702        1.35332
H          2.11554        0.71871       -1.67014
N          0.67568        2.91294       -0.64265
H          0.83675        3.85037       -0.99481
C          0.57137        2.92176        0.82101
H         -0.15076        3.65134        1.21428
H          0.25796        1.92990        1.16228
H          1.54990        3.14090        1.25971
H         -0.20569        2.58517       -1.03172
