31
1msa1dma1eda_30.log	Energy: -621181.8603938
S         -0.62204       -1.65159       -0.07181
O         -1.10730       -0.81992        1.06810
O          0.79015       -2.06166        0.07232
O         -0.89494       -0.97091       -1.37572
C         -1.60116       -3.14234       -0.07061
H         -1.44426       -3.64585        0.88348
H         -2.64851       -2.86783       -0.19607
H         -1.26432       -3.76834       -0.89710
H         -0.24125        3.41033        0.23063
H         -0.36306        3.07657       -1.51814
H         -2.59028        3.57853       -0.46440
H         -2.53613        1.97016       -1.19595
H         -3.38260        2.31505        1.25959
H         -2.40332        1.02593        0.97747
H         -0.32079        1.00101        0.59387
H         -0.35717        0.68382       -0.98720
C         -0.63478        2.72225       -0.52079
C         -2.14856        2.58260       -0.36730
N         -0.01482        1.40018       -0.30715
N         -2.45853        2.04346        0.95055
H          1.04412        1.31387       -0.30421
N          2.53719        0.38740       -0.00447
C          2.79333        0.45771        1.43317
C          3.73406        0.61221       -0.80638
H          2.15284       -0.54202       -0.19872
H          3.06785        1.48128        1.71190
H          1.88603        0.17353        1.97297
H          3.60302       -0.21529        1.75106
H          4.09379        1.63580       -0.65571
H          4.55251       -0.07670       -0.54780
H          3.49691        0.48372       -1.86549
