31
1msa1dma1eda_43.log	Energy: -621181.3936931
S         -1.67857       -0.90809       -0.11593
O         -2.32816       -0.41931       -1.33900
O         -1.91603       -0.07381        1.08753
O         -0.19763       -1.14073       -0.29984
C         -2.35612       -2.52359        0.23350
H         -3.42962       -2.40668        0.38406
H         -2.15693       -3.16923       -0.62209
H         -1.88160       -2.91385        1.13396
H          1.43622        3.02009       -0.31806
H          1.03161        1.78695       -1.54340
H         -0.81030        3.54202       -1.04195
H         -1.31579        1.85080       -0.98203
H         -1.56251        3.64926        1.08058
H         -1.68696        2.00411        1.19759
H          2.01375        0.83080        0.51880
H          0.62458        1.45706        1.33497
C          0.77490        2.18282       -0.55813
C         -0.69744        2.60700       -0.48534
N          1.01037        1.12056        0.44579
N         -1.08215        2.77528        0.91616
H          0.48864        0.23244        0.18177
N          3.39128       -0.35893        0.21902
C          3.21594       -0.66341       -1.20343
C          3.03026       -1.49715        1.06862
H          4.35554       -0.09582        0.39387
H          2.15810       -0.87471       -1.39339
H          3.51637        0.19934       -1.80464
H          3.79834       -1.53868       -1.52671
H          1.96659       -1.71695        0.92999
H          3.60132       -2.40560        0.82612
H          3.20263       -1.24337        2.11780
