33
1msa2eda_157.log	Energy: -655900.5955993
S         -0.15349        0.93273       -0.09082
O          0.04949        0.27159       -1.38162
O         -0.10819        0.08174        1.09905
O         -1.52123        1.71645       -0.12079
H         -2.25977        1.07325       -0.51151
C          1.00144        2.25864        0.09889
H          1.99653        1.80155        0.20436
H          0.94224        2.89269       -0.78553
H          0.73200        2.81113        0.99947
H         -2.52739       -2.15063        0.17871
H         -4.12722       -2.36638        0.88744
H         -4.49231       -1.58170       -1.30493
H         -4.87177       -0.23851       -0.19967
H         -2.37044       -0.50916       -1.73317
H         -3.57883        0.54179       -2.03307
H         -3.11645       -1.25131        2.55007
H         -2.18257       -0.32213        1.59894
C         -3.41013       -1.60743        0.55730
C         -4.06362       -0.85680       -0.59908
N         -3.11004       -0.73036        1.68149
N         -3.11025        0.03440       -1.28719
H          3.94749       -1.35795        1.56400
H          2.32147       -0.64777        1.50566
H          2.53183       -2.35120       -0.21382
H          2.33752       -0.76453       -0.96163
H          4.85663       -2.24934       -0.77112
H          4.11764       -1.66394       -2.10709
H          4.17435        1.01368        1.62361
H          4.57891        0.56349        0.09715
C          3.27314       -0.71770        0.96916
C          3.02670       -1.38293       -0.37923
N          3.80913        0.62867        0.75937
N          4.28548       -1.48808       -1.12370
