26
1msa1ma1dma_59.log	Energy: -561776.2121564
S          1.52157       -0.33405        0.07409
O          1.01414       -0.85950        1.34536
O          2.09085        1.05635        0.18314
O          0.50626       -0.37009       -1.02624
H         -0.34221        1.34785       -1.03948
C          2.87699       -1.36583       -0.44655
H          3.63778       -1.33720        0.33354
H          2.49364       -2.37853       -0.57334
H          3.26918       -0.97754       -1.38622
N         -2.31987       -1.27394       -0.22671
C         -2.84844       -1.06782        1.10383
C         -2.88756       -0.39981       -1.22375
H         -1.30660       -1.20698       -0.23980
H         -3.89881       -1.38094        1.14410
H         -2.28396       -1.67117        1.81806
H         -2.80957       -0.01340        1.44338
H         -3.95479       -0.61444       -1.35557
H         -2.81325        0.68237       -0.97465
H         -2.38922       -0.56251       -2.18313
N         -0.14289        2.21092       -0.50004
H          0.88185        2.02847       -0.24898
C         -0.94605        2.24664        0.74638
H         -0.62428        3.09221        1.35356
H         -2.00548        2.32909        0.50553
H         -0.75824        1.31643        1.28491
H         -0.26152        3.03895       -1.07767
