31
1msa1dma1eda_107.log	Energy: -621172.6040801
S         -0.02939        1.51863       -0.03206
O         -0.44641        0.58608       -1.11072
O          1.05617        2.43334       -0.39563
O          0.28016        0.73070        1.22717
H          0.79441       -0.60872        0.90822
C         -1.46473        2.48452        0.39852
H         -2.27366        1.79569        0.65067
H         -1.20622        3.12167        1.24448
H         -1.72981        3.08840       -0.47008
H          2.06229       -2.57086       -1.01669
H          1.01003       -1.16379       -1.39776
H          3.46746       -0.63415       -1.69206
H          2.65834        0.39546       -0.51386
H          4.59674       -1.70204        0.06114
H          4.37278       -0.25429        0.79120
H          0.50221       -2.29889        0.75932
H          2.01123       -1.76549        1.28147
C          1.78194       -1.55224       -0.73135
C          2.99702       -0.62795       -0.70230
N          1.22342       -1.59005        0.64660
N          3.89336       -1.04579        0.38031
N         -2.93032       -0.78228       -0.02261
C         -3.83190       -1.54967       -0.85918
C         -2.34553       -1.56180        1.04582
H         -2.18960       -0.36561       -0.58392
H         -4.70355       -1.86689       -0.27466
H         -4.19000       -0.92581       -1.68224
H         -3.37062       -2.45848       -1.29036
H         -3.12474       -1.89391        1.74162
H         -1.82662       -2.47986        0.68927
H         -1.63579       -0.94197        1.60153
