31
1msa1dma1eda_127.log	Energy: -621172.5863762
S         -0.07717       -0.84517       -0.22324
O         -0.15032        0.36849       -1.06566
O         -0.13385       -0.56502        1.22930
O          1.15227       -1.66958       -0.54253
H          2.22112       -1.10905        0.40931
C         -1.46786       -1.86824       -0.65143
H         -2.38519       -1.31092       -0.42756
H         -1.39906       -2.09305       -1.71632
H         -1.41001       -2.78254       -0.06013
H          4.50007        0.81583        0.85425
H          4.41141       -0.46201       -0.39005
H          3.74005        1.84091       -1.25719
H          2.47248        0.62007       -1.43761
H          2.31821        2.96447        0.14498
H          1.14728        1.83768       -0.20329
H          3.27939       -1.02445        1.77448
H          2.20331        0.21215        1.43225
C          3.83234        0.25847        0.19166
C          3.03330        1.21090       -0.70682
N          2.85497       -0.48060        1.02826
N          2.10477        1.97725        0.11484
N         -3.92609        0.32738        0.11670
C         -3.49085        1.30747       -0.87003
C         -3.42989        0.61966        1.45549
H         -4.93890        0.28274        0.13040
H         -2.40386        1.24680       -0.98587
H         -3.94561        1.07960       -1.83854
H         -3.75130        2.34623       -0.59829
H         -2.33950        0.52389        1.47066
H         -3.69259        1.63390        1.80574
H         -3.83513       -0.10849        2.16416
