31
1msa1dma1eda_123.log	Energy: -621172.5214214
S         -0.06227        1.16198       -0.09181
O         -0.24761        0.19742       -1.19902
O          0.98129        2.17614       -0.34613
O          0.21830        0.44492        1.21522
H          1.74734        0.32757        1.23449
C         -1.61767        1.98964        0.14953
H         -1.84327        2.52674       -0.77284
H         -2.38574        1.23630        0.35812
H         -1.50515        2.68709        0.98001
H          4.18486       -1.35310        0.66240
H          2.81553       -1.78084        1.72499
H          2.63437       -2.76240       -0.62968
H          1.26021       -1.74792       -0.16964
H          3.07113       -1.24010       -2.28637
H          1.68657       -0.42698       -1.85678
H          3.38728        0.66231        1.67348
H          2.90571        0.64579        0.06893
C          3.10766       -1.24781        0.81757
C          2.32761       -1.73407       -0.41122
N          2.79825        0.19240        0.99162
N          2.56457       -0.81895       -1.52024
N         -3.61584       -0.71297        0.34163
C         -2.76017       -1.54071        1.18032
C         -3.46057       -1.00746       -1.07716
H         -4.58462       -0.83582        0.61465
H         -1.71236       -1.29765        0.97851
H         -2.95297       -1.32128        2.23423
H         -2.90325       -2.62377        1.01444
H         -2.43608       -0.76792       -1.37967
H         -3.65577       -2.06601       -1.32586
H         -4.14326       -0.38248       -1.66029
