33
1msa2eda_99.log	Energy: -655911.0502020
S          2.27324       -0.33823        0.18148
O          2.99794       -1.12120        1.17600
O          2.67739        1.08003        0.03148
O          0.76139       -0.39722        0.37485
H          0.31550        1.08774        0.58636
C          2.53090       -1.11788       -1.40674
H          3.59631       -1.06480       -1.63303
H          2.21068       -2.15756       -1.33141
H          1.94821       -0.58831       -2.16096
H         -0.50290        3.67812       -0.66169
H          0.33344        2.32274       -1.46951
H         -2.25732        2.36064       -1.71667
H         -1.54490        0.84833       -1.16783
H         -3.43167        2.34074        0.21934
H         -2.56672        1.04286        0.80086
H          1.10282        2.52208        0.78547
H         -0.50836        2.38825        1.33662
C         -0.38588        2.59190       -0.69400
C         -1.73329        1.88896       -0.88043
N          0.16853        2.14939        0.60702
N         -2.50332        1.96652        0.35931
H         -2.29909       -2.94578        0.98827
H         -3.75313       -1.93604        1.07569
H         -3.30006       -2.46537       -1.24609
H         -3.08828       -0.74392       -0.97333
H         -0.63648       -1.27227       -0.85652
H         -1.00849       -2.76431       -1.39831
H         -2.13597       -0.97289        2.46618
H         -0.99270       -0.94950        1.30875
C         -2.70443       -1.94805        0.75516
C         -2.65303       -1.72825       -0.75776
N         -1.99860       -0.87416        1.46534
N         -1.33404       -1.80349       -1.37623
