28
1msa1ma1eda_24.log	Energy: -596522.3101721
S         -1.97255       -0.32212        0.03694
O         -1.33776       -1.38588       -0.80951
O         -2.28017        0.90679       -0.72686
O         -1.17031       -0.07159        1.25957
C         -3.53917       -0.99856        0.56212
H         -4.03052       -0.25805        1.19362
H         -4.13568       -1.20251       -0.32739
H         -3.34834       -1.91664        1.11789
H          2.46441       -2.18592       -0.79942
H          2.40864       -0.87160       -1.98452
H          4.55756       -0.80501       -0.74056
H          3.58927        0.63209       -0.39304
H          3.93538       -1.64729        1.41225
H          4.14205       -0.05223        1.72101
H          0.31599       -1.08558       -0.58957
H          1.25437       -0.65879        0.72102
C          2.43480       -1.09842       -0.91618
C          3.64274       -0.45173       -0.24476
N          1.19937       -0.59240       -0.29907
N          3.59564       -0.71807        1.18944
H          1.02459        0.44032       -0.53277
N          0.47208        2.04728       -0.76157
H          0.81914        2.65034       -1.50028
C          0.57745        2.70456        0.54805
H          0.07514        3.67837        0.58618
H          0.11491        2.04947        1.29068
H          1.63165        2.84734        0.80768
H         -0.51643        1.85236       -0.95651
