32
1msa1dma1tma_16.log	Energy: -611100.1820809
S          0.19114        0.64514        0.08144
O          0.72755        0.92983       -1.25396
O          0.02819       -0.79719        0.39233
O         -1.12401        1.36554        0.33979
H         -2.20891        0.42668        0.11776
C          1.32305        1.32348        1.27750
H          2.28992        0.82180        1.15180
H          1.41366        2.39295        1.08376
H          0.91459        1.14585        2.27276
N          4.06605       -0.38949        0.33214
C          4.12855        0.26386       -0.96962
C          3.43898       -1.70350        0.27038
H          5.00045       -0.47491        0.71656
H          3.11131        0.45006       -1.32882
H          4.63424        1.22900       -0.87128
H          4.65870       -0.33388       -1.73218
H          2.38263       -1.59070        0.00700
H          3.91012       -2.37797       -0.46679
H          3.48608       -2.17806        1.25485
N         -3.01978       -0.29790       -0.08145
C         -3.02716       -1.25188        1.04993
H         -2.02771       -1.68230        1.12659
H         -3.25576       -0.70675        1.96686
H         -3.78174       -2.02446        0.87638
C         -4.27720        0.46771       -0.18314
H         -4.45223        0.98696        0.75990
H         -4.17943        1.20269       -0.98305
H         -5.10959       -0.20874       -0.39635
C         -2.66867       -0.96842       -1.35576
H         -2.57663       -0.21068       -2.13491
H         -1.70419       -1.46006       -1.22301
H         -3.44677       -1.69106       -1.61675
