29
1msa2dma_02.log	Energy: -586451.0650342
S          1.74997       -0.15149        0.02970
O          1.58835       -1.21706        1.03097
O          1.46420        1.21792        0.58029
O          0.97498       -0.38664       -1.21941
C          3.47384       -0.11433       -0.43366
H          4.06074        0.08376        0.46340
H          3.72825       -1.08792       -0.85322
H          3.61702        0.67394       -1.17281
N         -1.16894        1.44536        0.16439
C         -1.95799        2.12923        1.19882
C         -1.29194        2.01050       -1.19203
H         -0.13955        1.43844        0.41812
H         -3.02100        2.06828        0.95409
H         -1.77645        1.64239        2.15780
H         -1.65799        3.17708        1.26434
H         -2.33065        1.94516       -1.52502
H         -0.96935        3.05362       -1.18794
H         -0.64287        1.42554       -1.84604
H         -1.44080        0.40233        0.10766
N         -1.65988       -1.24534       -0.15144
C         -2.75403       -1.61247       -1.04226
C         -1.64159       -2.01535        1.09174
H         -0.76380       -1.36286       -0.63138
H         -3.71267       -1.35939       -0.57607
H         -2.66756       -1.05722       -1.98043
H         -2.76625       -2.68755       -1.27610
H         -2.50370       -1.73890        1.70963
H         -1.68478       -3.09921        0.90992
H         -0.71620       -1.79307        1.62792
