31
1msa1dma1eda_25.log	Energy: -621183.8812372
S          1.90894       -0.19705        0.03389
O          1.16117       -0.14859        1.31818
O          3.11286        0.63198       -0.01049
O          0.95933        0.07877       -1.11558
H         -0.11878        1.18452       -0.66428
C          2.39616       -1.89877       -0.20323
H          3.07727       -2.16553        0.60548
H          1.49883       -2.51970       -0.17543
H          2.89874       -1.97878       -1.16748
H         -2.80864       -0.64738       -1.09580
H         -3.27032       -2.33555       -0.87325
H         -3.69905       -1.05635        1.14077
H         -2.48512       -2.32023        1.43313
H         -1.97047       -0.08566        2.36934
H         -0.78853       -0.62501        1.39484
H         -1.22134       -2.54726       -1.82653
H         -0.52291       -1.31666       -1.01365
C         -2.53112       -1.58357       -0.57765
C         -2.66991       -1.36476        0.92436
N         -1.20466       -2.07131       -0.93245
N         -1.76535       -0.30978        1.40038
N         -0.87179        1.78245       -0.21185
C         -1.75562        2.35815       -1.23643
C         -0.21432        2.77043        0.66798
H         -1.39031        1.07705        0.39303
H         -1.18263        3.03241       -1.87544
H         -2.16617        1.55027       -1.84391
H         -2.57021        2.90681       -0.75877
H          0.41292        3.43024        0.06608
H         -0.97247        3.35306        1.19595
H          0.41053        2.22099        1.37405
