26
1msa1ma1dma_07.log	Energy: -561787.4512921
S          1.59660        0.01666       -0.07850
O          1.76879        1.24279       -0.86911
O          0.86174       -1.06628       -0.83399
O          0.98159        0.21551        1.25544
C          3.22743       -0.66102        0.19606
H          3.69082       -0.83708       -0.77489
H          3.80151        0.06929        0.76715
H          3.12750       -1.59321        0.75218
N         -1.64458       -0.96642       -0.05522
C         -2.46717       -1.75662       -0.98463
C         -1.72539       -1.39481        1.35423
H         -0.61867       -1.00967       -0.36936
H         -3.52187       -1.68019       -0.70952
H         -2.32058       -1.37341       -1.99515
H         -2.15315       -2.80133       -0.94950
H         -2.74354       -1.25471        1.72596
H         -1.44842       -2.44826        1.42721
H         -1.01138       -0.79542        1.92077
H         -1.92639        0.04960       -0.11664
N         -2.38446        1.78123       -0.16515
H         -2.72267        2.07028       -1.07851
C         -1.16324        2.53933        0.18039
H         -1.34240        3.61733        0.26632
H         -0.75700        2.15977        1.11975
H         -0.39561        2.35907       -0.57459
H         -3.12729        2.00025        0.49247
