31
1msa1dma1eda_120.log	Energy: -621173.2473946
S          0.37299        1.71253       -0.09497
O         -0.33471        1.04847       -1.21571
O          1.80961        1.92375       -0.31640
O          0.09210        0.97637        1.19666
H          0.23878       -0.51745        0.99635
C         -0.38244        3.31296        0.12770
H         -0.21682        3.88550       -0.78522
H         -1.44865        3.16965        0.30362
H          0.09170        3.79989        0.97986
H          0.76545       -2.86859       -0.81252
H          0.34380       -1.18427       -1.26410
H          2.82016       -1.66159       -1.52034
H          2.46399       -0.34619       -0.40180
H          3.40740       -3.01533        0.30924
H          3.79838       -1.56146        0.95105
H         -0.54057       -2.03498        0.93864
H          1.06020       -1.95884        1.45474
C          0.90290       -1.81133       -0.56711
C          2.38112       -1.42843       -0.54357
N          0.36188       -1.58283        0.80001
N          3.03465       -2.11159        0.57766
N         -2.72157       -0.64724       -0.30598
C         -2.71159       -1.93010       -0.95763
C         -2.98135       -0.68850        1.11037
H         -1.92523       -0.06594       -0.55735
H         -3.70112       -2.39832       -0.89348
H         -2.46259       -1.80839       -2.01475
H         -1.99301       -2.66342       -0.52297
H         -4.02021       -0.98554        1.29960
H         -2.34600       -1.40768        1.67432
H         -2.81614        0.29779        1.54794
