28
1msa1ma1eda_107.log	Energy: -596515.6861344
S          2.07135        0.14921        0.12689
O          2.18647       -0.33502        1.50712
O          0.76335        0.86914       -0.12645
O          2.27977       -0.88635       -0.91586
C          3.33111        1.39198       -0.11088
H          3.18041        2.17545        0.63217
H          4.30027        0.91258        0.03016
H          3.24064        1.79173       -1.12085
H         -0.97844       -3.04700       -0.19604
H          0.14415       -2.00808        0.72589
H         -2.22134       -1.99127        1.68300
H         -1.62894       -0.40223        1.20168
H         -3.73910       -1.90080       -0.07658
H         -3.47468       -0.26265        0.03513
H         -1.38526       -1.12693       -1.61341
H         -0.12776       -0.25862       -0.80672
C         -0.75782       -2.02073        0.11006
C         -1.94752       -1.37690        0.81719
N         -0.49590       -1.21749       -1.11114
N         -3.03800       -1.17254       -0.13496
H          0.26555       -1.60407       -1.67195
N         -3.42580        1.78110        0.39742
H         -4.29769        2.21692        0.11521
C         -2.32582        2.20864       -0.47583
H         -2.23369        3.29744       -0.58273
H         -1.37753        1.82814       -0.08765
H         -2.47513        1.77966       -1.47150
H         -3.25151        2.07462        1.35295
