33
1msa2eda_93.log	Energy: -655912.3271399
S          1.85571       -0.65673       -0.02076
O          2.95676        0.31741       -0.13208
O          1.10846       -0.88979       -1.27155
O          0.92175       -0.26671        1.10754
H          0.82054        1.30193        0.99905
C          2.54343       -2.22265        0.48291
H          1.72457       -2.93649        0.57830
H          3.24358       -2.54171       -0.28968
H          3.05550       -2.08477        1.43510
H          0.59972        3.63132       -0.87143
H          1.33613        2.03354       -1.21130
H         -1.12301        2.32576       -2.01382
H         -0.78746        0.91125       -1.01916
H         -2.54349        3.02345       -0.36695
H         -2.19540        1.62689        0.48799
H          1.58549        2.80836        1.13034
H         -0.10902        2.71597        1.23084
C          0.54145        2.55688       -0.67725
C         -0.84981        2.00409       -1.00445
N          0.74576        2.35204        0.78351
N         -1.80331        2.44815        0.01152
H         -3.03226       -2.15984        1.31874
H         -4.07406       -0.76693        0.94680
H         -3.70197       -2.04174       -1.04606
H         -2.89371       -0.47805       -1.21671
H         -1.66433       -2.66198       -1.82736
H         -0.79731       -1.61471       -0.94340
H         -2.22028       -0.12604        2.32762
H         -1.14129       -0.56689        1.19766
C         -3.07260       -1.19046        0.80113
C         -2.85657       -1.44552       -0.68544
N         -2.09719       -0.22821        1.32484
N         -1.63162       -2.19954       -0.92658
