25
1msa1a1eda_04.log	Energy: -571867.2702167
S          1.55359       -0.15546        0.01968
O          1.65634       -1.47610        0.64925
O          0.81341        0.84597        0.83983
O          0.99637       -0.20768       -1.37645
C          3.20961        0.48407       -0.17306
H          3.65629        0.56290        0.81841
H          3.77260       -0.21369       -0.79327
H          3.14969        1.46253       -0.64965
H         -3.45529       -0.51487       -0.71516
H         -2.44356       -1.67215       -1.62038
H         -2.54538       -2.24731        0.74461
H         -0.88826       -1.86874        0.27552
H         -2.02892       -0.83619        2.39987
H         -0.93180        0.00989        1.54038
H         -1.91285        0.49980       -2.32645
H         -1.70723        1.11647       -0.77915
C         -2.43672       -0.88407       -0.86245
C         -1.88004       -1.42955        0.44939
N         -1.62054        0.24443       -1.38583
N         -1.86271       -0.40878        1.49670
H         -0.57906        0.00984       -1.41829
N         -1.59177        2.45018        0.31536
H         -2.16996        2.15232        1.09656
H         -1.71382        3.44551        0.16845
H         -0.62081        2.25992        0.57561
