25
1msa1a1eda_45.log	Energy: -571856.6007799
S          1.03000       -0.51462       -0.16783
O          0.91811       -0.00117        1.21597
O          0.90162        0.52104       -1.20879
O          0.04985       -1.65206       -0.38737
H         -1.25027       -1.37220        0.18177
C          2.63812       -1.25804       -0.34360
H          3.37286       -0.46310       -0.19200
H          2.73868       -2.03712        0.41225
H          2.71117       -1.67752       -1.34717
H         -3.13279        0.42163        1.74296
H         -1.33472        0.43086        1.70466
H         -2.35771        2.24188        0.25422
H         -1.31148        1.12406       -0.62259
H         -4.21736        1.27532       -0.80095
H         -3.10859        0.96510       -1.96524
H         -2.47617       -1.79601        1.32867
H         -2.94101       -1.14527       -0.14766
C         -2.24446        0.28105        1.11969
C         -2.26742        1.20727       -0.09626
N         -2.24475       -1.11663        0.60916
N         -3.34788        0.79261       -0.99665
N          3.30526        1.94665        0.36435
H          2.69440        1.68581        1.13404
H          2.70369        2.05395       -0.44800
H          3.72688        2.84397        0.57485
