28
1msa1ma1eda_134.log	Energy: -596510.1299303
S          0.59754       -0.69686       -0.15372
O          0.48906       -0.13859        1.19593
O          0.58192        0.25440       -1.26386
O         -0.51794       -1.78447       -0.35716
H         -1.48627       -1.43521       -0.03579
C          2.05962       -1.69312       -0.26675
H          2.91504       -1.01367       -0.15956
H          2.03370       -2.43038        0.53537
H          2.06411       -2.17654       -1.24386
H         -3.68408        0.51684        1.65603
H         -1.91623        0.32062        1.79198
H         -2.48099        2.37297        0.53613
H         -1.60052        1.22456       -0.46986
H         -4.44998        1.83412       -0.66266
H         -3.33031        1.70142       -1.84935
H         -3.20027       -1.70358        1.05082
H         -3.45843       -0.89803       -0.36591
C         -2.75951        0.31865        1.09667
C         -2.55392        1.39718        0.03743
N         -2.82338       -0.99509        0.42848
N         -3.62616        1.32214       -0.95843
N          4.32970        0.74930        0.05784
H          5.01303        0.70209        0.80588
C          3.33106        1.78806        0.32833
H          3.75158        2.79578        0.45844
H          2.60873        1.81143       -0.49113
H          2.77296        1.52276        1.22980
H          4.83823        0.95466       -0.79543
