28
1msa1ma1eda_86.log	Energy: -596518.2388850
S         -1.83662       -0.19347        0.11937
O         -1.13057       -0.00933       -1.20771
O         -1.37244        0.78999        1.11866
O         -1.76916       -1.59882        0.55543
C         -3.54535        0.18876       -0.22480
H         -3.60269        1.21238       -0.59513
H         -3.91109       -0.51619       -0.97130
H         -4.10001        0.08514        0.70816
H          0.86887       -0.68204        0.90090
H          1.06259       -2.42518        0.73957
H          3.11936       -1.17612        1.65201
H          3.48512       -2.12470        0.20177
H          2.84550        0.75357        0.19264
H          4.31035        0.05603       -0.21932
H          1.12073       -2.20824       -1.56198
H          0.14674       -0.83315       -1.20388
C          1.42485       -1.46290        0.38029
C          2.92645       -1.25725        0.57390
N          1.10813       -1.31835       -1.07066
N          3.30747       -0.07963       -0.19961
H          1.85339       -0.70332       -1.44283
N          1.33784        2.05474        0.67967
H          0.46800        1.67361        1.05770
C          1.04063        2.65841       -0.62357
H          0.40771        3.55409       -0.56445
H          1.97154        2.92718       -1.13445
H          0.50779        1.92349       -1.23275
H          1.65574        2.76486        1.33161
