33
1msa2eda_98.log	Energy: -655911.2079140
S         -1.00164       -1.44576       -0.14220
O         -0.37111       -1.14341       -1.43862
O         -2.40422       -0.99915       -0.01585
O         -0.16955       -0.92863        1.01262
H         -0.47641        0.56541        1.33020
C         -0.98299       -3.21765        0.05646
H          0.05334       -3.55277        0.00496
H         -1.42657       -3.46084        1.02182
H         -1.56703       -3.64834       -0.75726
H          3.04912        1.11013        1.21239
H          4.54099        0.24716        0.79921
H          3.85539        1.64074       -1.04455
H          3.76214       -0.07426       -1.50139
H          1.82673        1.30185       -2.15941
H          1.36207        0.08207       -1.20743
H          3.17835       -1.36494        1.73856
H          1.86389       -0.96976        0.85098
C          3.46819        0.30432        0.58194
C          3.30352        0.70784       -0.87767
N          2.88203       -1.00563        0.83864
N          1.89756        0.95166       -1.20887
H         -0.62335        3.51370        0.74891
H          0.53601        2.31031        0.04846
H         -1.49718        2.95399       -1.44050
H         -1.16485        1.23731       -1.22127
H         -3.52220        2.57089       -0.48137
H         -3.12390        0.97610       -0.24950
H         -0.33522        1.88238        2.40529
H         -1.80222        1.57723        1.63258
C         -0.48761        2.48788        0.39469
C         -1.50000        2.14326       -0.70634
N         -0.77183        1.57843        1.53950
N         -2.82354        1.93974       -0.11429
