35
1msa2tma_02.log	Energy: -635766.3839557
N         -0.15493        1.93048       -0.03261
C          0.92169        2.94349       -0.12174
H          1.78768        2.55416        0.41571
H          1.17792        3.09001       -1.17194
H          0.57311        3.88329        0.31432
C         -1.33465        2.27623       -0.85387
H         -1.02655        2.36484       -1.89675
H         -2.06160        1.46949       -0.74125
H         -1.75438        3.22426       -0.50660
C         -0.53082        1.65321        1.37639
H         -1.30069        0.88096        1.36311
H          0.35884        1.29521        1.89627
H         -0.91172        2.57152        1.83172
H          0.26921        1.02153       -0.43034
S          1.94502       -0.75427        0.06874
O          1.39227       -1.95215        0.70999
O          2.36653        0.32431        0.99182
O          1.02283       -0.19490       -0.99540
C          3.40182       -1.26348       -0.83171
H          4.11176       -1.66959       -0.11036
H          3.10950       -2.02666       -1.55309
H          3.82178       -0.39281       -1.33549
N         -2.52944       -0.78685       -0.00690
C         -2.02280       -1.66846        1.03997
H         -0.93524       -1.75763        0.96520
H         -2.27763       -1.25956        2.02413
H         -2.46024       -2.68161        0.96968
C         -3.97386       -0.65679        0.07656
H         -4.25679       -0.26054        1.05717
H         -4.33368        0.03757       -0.69076
H         -4.49403       -1.62285       -0.06657
C         -2.11884       -1.26961       -1.31991
H         -2.48249       -0.58553       -2.09546
H         -1.02768       -1.30377       -1.37108
H         -2.52503       -2.27508       -1.53628
