31
1msa1dma1eda_56.log	Energy: -621178.8886514
S          1.79658        0.36145        0.11265
O          1.17201        0.95279        1.30414
O          0.82805        0.32848       -1.05748
O          2.40718       -0.96849        0.30165
C          3.09323        1.47128       -0.41139
H          2.65224        2.45110       -0.59513
H          3.82676        1.52635        0.39350
H          3.54679        1.07173       -1.31834
H         -0.58671       -3.70454        0.06975
H          0.76981       -2.63119        0.57033
H         -1.43244       -2.34371        1.92124
H         -0.74365       -0.87584        1.23182
H         -3.25528       -2.01569        0.57304
H         -2.56905       -0.56114        0.09638
H         -1.21399       -1.93518       -1.44133
H          0.25540       -1.10727       -1.18864
C         -0.24121       -2.67103        0.16222
C         -1.22645       -1.82618        0.97945
N         -0.21812       -2.07790       -1.20311
N         -2.43045       -1.57667        0.18659
H          0.24807       -2.66935       -1.88514
N         -1.93601        1.32960       -0.12894
C         -1.98066        2.06644        1.12706
C         -2.63828        2.00722       -1.20692
H         -0.96217        1.18712       -0.39691
H         -2.99698        2.04061        1.53816
H         -1.29443        1.60407        1.83971
H         -1.68707        3.12311        1.01308
H         -3.71064        2.05225       -0.98350
H         -2.28700        3.04002       -1.37117
H         -2.51069        1.45057       -2.13994
