26
1msa1ma1dma_42.log	Energy: -561775.8436056
S          0.47192       -0.84362        0.07489
O         -0.06484       -0.28974        1.31235
O          1.67360       -1.67442        0.16996
O          0.75300        0.32135       -0.95986
H          1.76443        0.58993       -0.88761
C         -0.81797       -1.72202       -0.76552
H         -1.09040       -2.56060       -0.12259
H         -1.66924       -1.04026       -0.89292
H         -0.42723       -2.07826       -1.71839
N         -3.23462        0.49036       -0.43696
C         -2.51004        1.75121       -0.53553
C         -3.51846        0.11643        0.94309
H         -4.10094        0.55235       -0.96056
H         -1.53748        1.64155       -0.04730
H         -2.33176        1.99177       -1.58700
H         -3.03777        2.59696       -0.06164
H         -2.57120       -0.05355        1.46448
H         -4.08197        0.88593        1.49827
H         -4.09214       -0.81494        0.96184
N          3.26436        0.83302       -0.56537
H          3.62375       -0.11854       -0.53370
C          3.35233        1.45362        0.76597
H          4.37875        1.52506        1.14094
H          2.91782        2.45436        0.72116
H          2.76034        0.85948        1.46545
H          3.80682        1.34997       -1.24994
