25
1msa1a1eda_09.log	Energy: -571866.0780410
S          1.62143       -0.09294       -0.01623
O          1.55595        0.88506        1.09174
O          1.59637        0.51135       -1.36458
O          0.55183       -1.14731        0.10891
H         -0.62967       -0.49037       -0.96208
C          3.17330       -0.95736        0.15798
H          3.97390       -0.22278        0.06769
H          3.19466       -1.43026        1.13989
H          3.24219       -1.70349       -0.63364
H         -2.10185       -2.10199        0.21633
H         -3.69169       -1.45384        0.64114
H         -3.07750       -1.05006       -1.73341
H         -3.42362        0.44907       -0.83763
H         -1.27767        0.32181       -2.27686
H         -1.21932        1.07661       -0.75464
H         -2.41405       -0.69425        2.35774
H         -1.08369       -0.44786        1.44243
C         -2.66556       -1.17299        0.38431
C         -2.73416       -0.39453       -0.92875
N         -2.10060       -0.35716        1.45524
N         -1.39835        0.14787       -1.28236
N         -0.94862        2.32811        0.31484
H         -0.96219        3.31251        0.07253
H         -0.01254        2.08939        0.66074
H         -1.60156        2.15726        1.07558
