34
1msa1eda1tma_42.log	Energy: -645834.9980467
S         -0.40558        1.67755       -0.04817
O         -0.14194        0.96459        1.23115
O         -1.44618        2.70422        0.02541
O         -0.66593        0.65866       -1.14244
H         -1.41404       -0.47861       -0.53466
C          1.11971        2.46550       -0.52845
H          1.34461        3.22904        0.21689
H          1.90803        1.71173       -0.54755
H          0.97410        2.91809       -1.50935
H          1.22707       -0.93837       -0.71718
H          2.02162       -2.51271       -0.94220
H          1.86084       -2.06873        1.42906
H          3.56048       -1.97893        0.94212
H          1.81391        0.31429        1.48691
H          3.25049       -0.06381        2.19794
H          2.91996       -0.64381       -2.34787
H          3.56432       -0.03770       -0.96574
C          2.18428       -1.47580       -0.61788
C          2.59123       -1.47647        0.85218
N          3.25255       -0.89096       -1.42256
N          2.73099       -0.10358        1.32955
N         -2.02133       -1.25240       -0.06004
C         -2.62910       -2.05368       -1.14160
H         -3.23435       -1.39768       -1.76822
H         -1.83388       -2.49356       -1.74473
H         -3.25317       -2.84272       -0.71391
C         -1.12444       -2.05208        0.80530
H         -0.40167       -2.57533        0.17790
H         -0.59891       -1.35944        1.46451
H         -1.71485       -2.77235        1.37796
C         -3.03886       -0.52570        0.73893
H         -2.51949        0.06854        1.49162
H         -3.58958        0.14463        0.07830
H         -3.71608       -1.24521        1.20654
