28
1msa1ma1eda_117.log	Energy: -596514.7923463
S          1.58468       -0.68693       -0.03019
O          0.71962       -1.51274       -0.87988
O          1.00295       -0.34070        1.29211
O          2.05992        0.57241       -0.72019
C          3.07244       -1.62056        0.28617
H          3.54611       -1.83823       -0.67128
H          3.72953       -1.02203        0.91692
H          2.78621       -2.54335        0.79136
H         -1.17011        3.48583       -0.16237
H         -0.24749        2.88189       -1.57344
H         -2.35553        1.54941       -1.01558
H         -0.88412        0.57553       -1.07330
H         -2.55490        0.54264        0.96407
H         -0.95728        0.30527        1.18009
H          1.11125        3.35156        0.46037
H          0.30210        2.09553        1.20108
C         -0.58825        2.65159       -0.56163
C         -1.40496        1.36018       -0.50805
N          0.61443        2.47919        0.29964
N         -1.64630        0.99810        0.88470
H          1.28656        1.73879       -0.12978
N         -3.69720       -1.27064        0.48464
H         -3.50240       -1.79336        1.33272
C         -2.89503       -1.79420       -0.62711
H         -3.07108       -2.85575       -0.84837
H         -3.11656       -1.21808       -1.53025
H         -1.83070       -1.66502       -0.41170
H         -4.68811       -1.38011        0.29698
