31
1msa1dma1eda_28.log	Energy: -621182.9987757
S         -1.80595       -0.13634        0.06982
O         -1.61575       -1.59432        0.23955
O         -1.13598        0.40170       -1.14254
O         -1.42214        0.64463        1.28610
H          0.27220        0.88982        1.25725
C         -3.55835        0.12616       -0.13982
H         -3.87648       -0.42007       -1.02809
H         -4.06621       -0.25170        0.74760
H         -3.73216        1.19552       -0.26000
H          2.00339        1.18124       -1.25910
H          2.73917        2.74456       -0.90009
H          3.24699        1.20828        0.90179
H          2.16956        2.50505        1.49028
H          1.35536       -0.31687        0.72576
H          1.45552        0.36818        2.28028
H          0.65341        3.42206       -1.43322
H         -0.09934        2.08842       -0.84712
C          1.93720        2.06174       -0.60116
C          2.24238        1.63711        0.83096
N          0.65994        2.74995       -0.67643
N          1.28556        0.60724        1.30526
N          1.29586       -1.75377       -0.09892
C          2.11691       -2.81237        0.47875
C          1.50701       -1.58616       -1.53688
H          0.30127       -1.96009        0.04907
H          3.17737       -2.55258        0.38597
H          1.88037       -2.92786        1.54023
H          1.96252       -3.78255       -0.01526
H          2.52229       -1.21607       -1.72208
H          1.38159       -2.53096       -2.08481
H          0.77893       -0.86204       -1.91102
