26
1msa1ma1dma_25.log	Energy: -561776.3687583
S          0.51594        0.84762       -0.11737
O         -0.20250        0.53676       -1.34644
O          1.80309        1.53720       -0.22907
O          0.73423       -0.47250        0.71982
H          1.76936       -0.71142        0.74318
C         -0.56783        1.76801        0.94586
H         -0.74863        2.72575        0.45561
H         -1.49940        1.19879        1.03605
H         -0.07306        1.91238        1.90586
N         -2.89872       -0.37843       -0.02402
C         -4.29637       -0.22752       -0.38809
C         -2.58318       -1.70864        0.47162
H         -2.30218       -0.16907       -0.82002
H         -4.92030       -0.31484        0.50872
H         -4.46231        0.76459       -0.81712
H         -4.64706       -0.98254       -1.11432
H         -3.10055       -1.87745        1.42320
H         -2.88275       -2.51504       -0.22130
H         -1.50770       -1.78438        0.64988
N          3.25970       -0.92959        0.63507
H          3.62859        0.00874        0.77175
C          3.56879       -1.39745       -0.72570
H          4.64403       -1.48384       -0.91242
H          3.09931       -2.37033       -0.88409
H          3.14103       -0.68904       -1.43767
H          3.67258       -1.53611        1.33678
