20
1msa1a1ma_01.log	Energy: -512472.5462935
S         -1.16493       -0.07065       -0.00041
O         -1.25049        1.40525       -0.01332
O         -0.51728       -0.60651        1.23432
O         -0.51514       -0.62757       -1.22516
C         -2.84106       -0.68070        0.00277
H         -3.33578       -0.29816        0.89564
H         -3.33357       -0.31433       -0.89807
H         -2.81057       -1.77019        0.01273
N          1.91834       -0.55999        0.00337
H          1.29398       -0.77141        0.80561
H          1.28466       -0.77500       -0.79163
C          3.19753       -1.28461       -0.00219
H          3.76159       -1.01851       -0.89659
H          3.77349       -1.01213        0.88270
H          3.01218       -2.35895        0.00279
H          2.01113        0.49804        0.00081
N          1.61866        2.22914       -0.00019
H          1.88101        2.77489       -0.81499
H          1.87281        2.77019        0.82035
H          0.59331        2.14427       -0.00534
