28
1msa1ma1eda_172.log	Energy: -596508.7767532
S         -0.73757       -1.02340       -0.24145
O          0.14407       -1.38263       -1.33937
O         -2.15312       -1.38881       -0.32843
O         -0.65536        0.54249        0.00376
H         -1.59919        0.98652       -0.18425
C         -0.04600       -1.64831        1.26809
H          0.05006       -2.72841        1.15017
H          0.92912       -1.16511        1.41101
H         -0.72827       -1.40615        2.08322
H          4.22670        1.37890        0.66616
H          4.27391       -0.38676        0.87446
H          3.97907        0.28817       -1.47526
H          2.61827       -0.69038       -0.90127
H          2.21641        1.50803       -2.18171
H          1.27439        1.18648       -0.90369
H          2.84637        0.59587        2.51558
H          1.91371        1.27709        1.36739
C          3.62396        0.45874        0.62112
C          3.11340        0.28629       -0.80390
N          2.50408        0.47331        1.56802
N          2.23157        1.39652       -1.17468
N         -3.01752        1.46690       -0.42607
H         -3.10678        2.38680       -0.84647
C         -3.78340        1.37252        0.82529
H         -4.85238        1.56556        0.68798
H         -3.65465        0.36571        1.22726
H         -3.38322        2.08927        1.54561
H         -3.36164        0.78184       -1.09515
