34
1msa1eda1tma_15.log	Energy: -645840.4291537
S          1.56062       -1.04314        0.13717
O          0.84008       -1.40245        1.37033
O          2.70871       -0.13418        0.32638
O          0.61232       -0.48270       -0.90451
H          0.32530        1.00966       -0.44227
C          2.17706       -2.55587       -0.57899
H          1.33044       -3.22262       -0.74490
H          2.67687       -2.31711       -1.51774
H          2.87870       -2.99470        0.13096
H         -3.10571        0.34762       -1.08915
H         -4.19404       -1.04626       -1.04737
H         -4.04737       -0.03893        1.14114
H         -3.38169       -1.68573        1.16399
H         -2.04598       -0.01365        2.34652
H         -1.18094       -0.70724        1.17817
H         -2.33215       -1.76641       -2.22490
H         -1.25770       -1.22407       -1.11636
C         -3.21135       -0.68839       -0.71904
C         -3.20903       -0.66071        0.80410
N         -2.19801       -1.59970       -1.23440
N         -1.97097       -0.07778        1.33521
N          0.30995        2.05058       -0.20176
C          1.41513        2.64054       -0.99263
H          2.33395        2.11760       -0.72158
H          1.20923        2.48530       -2.05224
H          1.49023        3.70866       -0.77450
C         -1.02259        2.57309       -0.57735
H         -1.18505        2.39074       -1.64083
H         -1.76222        2.02670        0.01256
H         -1.06398        3.64591       -0.37164
C          0.55634        2.17761        1.25780
H         -0.25792        1.67135        1.77537
H          1.50454        1.69007        1.48710
H          0.58651        3.23876        1.51867
