31
1msa1dma1eda_41.log	Energy: -621182.3862166
S         -1.79818        0.21005        0.07852
O         -0.99202        1.20706        0.82265
O         -2.08897       -1.01899        0.83685
O         -1.17909       -0.08103       -1.26270
C         -3.36522        0.98348       -0.29117
H         -3.85915        1.20062        0.65634
H         -3.17691        1.90240       -0.84659
H         -3.96025        0.28806       -0.88345
H          2.26234       -1.45283        1.08996
H          0.61374       -0.80886        1.31315
H          0.61134       -3.31175        1.38257
H         -0.34488       -2.66769        0.05202
H          2.26913       -3.97150       -0.16429
H          0.93793       -4.16545       -1.09268
H          1.87867        0.22029       -0.54861
H          1.80384       -1.33748       -1.30614
C          1.25772       -1.39824        0.65778
C          0.67714       -2.78640        0.42209
N          1.35671       -0.69639       -0.64516
N          1.48601       -3.48266       -0.58409
H          0.37893       -0.46863       -0.99449
N          2.39286        1.86962       -0.19464
C          2.17673        2.08116        1.24119
C          1.48272        2.68443       -1.00810
H          3.35289        2.10394       -0.42843
H          1.14829        1.79573        1.48083
H          2.86691        1.45487        1.81394
H          2.32430        3.13016        1.53706
H          0.45497        2.38989       -0.77716
H          1.59262        3.76044       -0.80937
H          1.67325        2.50021       -2.06895
