28
1msa1ma1eda_166.log	Energy: -596510.5938706
S         -1.89777       -0.36701       -0.12427
O         -3.28181       -0.63912        0.21298
O         -1.12216       -1.37644       -0.84377
O         -1.12786        0.00077        1.20918
H         -0.14489       -0.33823        1.21206
C         -1.81949        1.15689       -1.03934
H         -2.30208        0.97808       -2.00123
H         -2.36606        1.91343       -0.47523
H         -0.76902        1.44273       -1.16062
H          2.59346       -2.47108        0.82663
H          0.89576       -2.57412        0.30408
H          2.32140       -2.03052       -1.59235
H          1.20720       -0.70481       -1.24038
H          4.04268       -0.74505       -0.45254
H          3.34530        0.23153       -1.55200
H          1.31539       -1.25373        2.37575
H          2.02197       -0.11977        1.42754
C          1.73395       -1.89091        0.45947
C          2.08541       -1.23855       -0.86847
N          1.32820       -0.86570        1.43667
N          3.17485       -0.27066       -0.68670
N          1.29288        2.31461       -0.46932
H          1.97736        1.59379       -0.24901
C          0.74004        2.90822        0.74782
H          1.48857        3.34061        1.42810
H          0.03487        3.69928        0.47618
H          0.17264        2.14894        1.29303
H          1.77335        3.01795       -1.02029
