23
1msa2ma_10.log	Energy: -537117.1082282
S          0.09985       -0.88331        0.12873
O         -0.41901       -0.39697        1.40272
O          1.33319       -1.67080        0.15633
O          0.30429        0.32795       -0.86602
H          1.32667        0.59996       -0.86603
C         -1.18360       -1.78360       -0.70263
H         -1.36671       -2.68261       -0.11224
H         -2.07629       -1.14924       -0.72006
H         -0.83269       -2.04145       -1.70134
N         -3.20597        0.60651        0.34852
H         -4.11423        0.67483        0.79354
C         -2.89024        1.83060       -0.38525
H         -2.88250        2.74383        0.22889
H         -1.90286        1.72297       -0.84211
H         -3.61793        1.96951       -1.19068
H         -2.51515        0.44406        1.07706
N          2.81896        0.85157       -0.67806
H          3.18843       -0.09673       -0.66028
C          3.02401        1.50231        0.62582
H          4.08108        1.59801        0.89415
H          2.56962        2.49481        0.60362
H          2.51531        0.91371        1.39214
H          3.28994        1.35757       -1.42137
