29
1msa2dma_41.log	Energy: -586425.8470589
S          2.08680       -0.15480       -0.18715
O          1.32956       -1.14876       -0.92236
O          3.52625       -0.29324       -0.03622
O          1.46795       -0.10501        1.32421
H          2.20411       -0.21339        1.94310
C          1.65715        1.46031       -0.76988
H          1.95343        1.49872       -1.81952
H          0.56646        1.58757       -0.65399
H          2.21726        2.18944       -0.18419
N         -1.66002       -1.47739       -0.15090
C         -2.66479       -2.18747       -0.92477
C         -1.65430       -1.85100        1.25503
H         -0.73624       -1.63195       -0.54500
H         -3.66489       -1.89295       -0.58706
H         -2.57295       -1.92050       -1.98089
H         -2.58886       -3.28473       -0.83530
H         -2.58842       -1.52392        1.72602
H         -1.55526       -2.93787        1.41741
H         -0.82341       -1.34915        1.75728
N         -1.48503        1.56750       -0.10343
C         -2.50120        2.26998       -0.86757
C         -1.49909        1.92156        1.30601
H         -1.62772        0.55515       -0.19199
H         -2.28533        3.34504       -0.88247
H         -2.49687        1.91222       -1.90118
H         -3.52038        2.14052       -0.46169
H         -1.24455        2.98138        1.42960
H         -2.47822        1.75697        1.78993
H         -0.74826        1.32933        1.83679
