25
1msa1a1eda_08.log	Energy: -571866.6391317
S          1.38135       -0.37950        0.07885
O          0.79188       -0.04890       -1.25745
O          0.67585       -1.50129        0.73570
O          1.49889        0.82652        0.93623
C          3.04480       -0.93390       -0.25462
H          3.51493       -1.17615        0.69866
H          2.98930       -1.81581       -0.89299
H          3.58117       -0.12747       -0.75501
H         -1.19166        0.26141        1.20440
H         -2.74544        1.11543        1.10198
H         -2.95172       -1.37711        1.42443
H         -3.81625       -0.76801        0.00750
H         -1.13650       -1.97464       -0.15577
H         -2.55025       -2.65831       -0.67527
H         -1.24160        1.91727       -0.53473
H         -0.85239        0.39210       -1.07590
C         -2.09783        0.38738        0.60726
C         -2.81424       -0.94593        0.42026
N         -1.65650        0.95560       -0.69447
N         -2.07466       -1.77975       -0.51100
H         -2.40824        0.96898       -1.38007
N         -0.06454        3.13279       -0.00758
H          0.39619        3.61005       -0.77626
H          0.61181        2.46059        0.37967
H         -0.26039        3.82723        0.70596
