33
1msa2eda_104.log	Energy: -655911.9521841
S         -1.90063       -0.68660       -0.00607
O         -1.26483       -1.37570       -1.13949
O         -2.44005        0.65749       -0.32072
O         -1.00463       -0.61806        1.20627
C         -3.28425       -1.69567        0.49739
H         -3.97316       -1.76072       -0.34516
H         -2.90576       -2.68337        0.76131
H         -3.76536       -1.22318        1.35374
H          1.34431        3.14338        0.83748
H          1.77958        1.40602        0.91864
H          1.48041        2.30326       -1.44807
H          0.46785        0.92017       -1.07596
H         -0.43416        3.43863       -1.87223
H         -1.36434        2.17999       -1.32461
H         -0.14322        2.20004        2.38959
H         -0.98217        2.41738        0.95363
C          1.00695        2.12426        0.62901
C          0.62684        1.97888       -0.84615
N         -0.23031        1.89083        1.42535
N         -0.56762        2.77846       -1.11902
H         -0.52208        0.85713        1.40306
H          4.17965       -1.95386       -0.05325
H          3.63407       -1.52085        1.57458
H          1.92581       -2.83631        0.38540
H          1.31873       -1.22486        0.75591
H          2.19178       -2.13569       -1.87316
H          0.75507       -1.48763       -1.41646
H          4.59009        0.37505        0.31107
H          3.31793        0.24984       -0.72299
C          3.46012       -1.33367        0.50901
C          2.04441       -1.76883        0.14344
N          3.61758        0.09623        0.23856
N          1.76132       -1.45388       -1.25633
