25
1msa1a1eda_56.log	Energy: -571852.1584364
S          0.99656       -0.52475       -0.21228
O          0.36549       -0.11680       -1.45949
O          0.70177        0.27655        0.98148
O          2.56585       -0.60232       -0.38797
H          2.97985        0.30016       -0.09897
C          0.60974       -2.22507        0.10946
H          0.86950       -2.80688       -0.77479
H          1.17969       -2.54832        0.97998
H         -0.46472       -2.26073        0.31733
H         -3.85685        1.38064        0.50102
H         -3.68033        1.24168       -1.24490
H         -3.83316       -0.99765       -0.30550
H         -2.22193       -0.74448       -0.97237
H         -1.49992       -0.30827        1.34385
H         -2.97471       -0.79396        1.86171
H         -1.52936        1.85431        0.65907
H         -1.30470        1.60594       -0.92734
C         -3.16734        1.06211       -0.29190
C         -2.89734       -0.44447       -0.16142
N         -1.98884        1.91997       -0.24368
N         -2.30574       -0.88200        1.10363
N          3.39992        1.74167        0.45882
H          2.67272        1.91864        1.14870
H          3.34324        2.46937       -0.24711
H          4.30323        1.81317        0.91545
