28
1msa1ma1eda_67.log	Energy: -596520.0705594
S          2.06955       -0.14391       -0.01648
O          3.31367        0.17583       -0.71013
O          0.88172       -0.29098       -0.93801
O          1.72392        0.77067        1.11392
H          0.14563        1.62074        0.83935
C          2.27139       -1.76059        0.72272
H          2.50393       -2.47169       -0.07078
H          3.09554       -1.70313        1.43434
H          1.34512       -2.03187        1.23153
H         -1.99204       -0.29624       -1.44598
H         -3.02804       -1.68816       -1.70798
H         -4.18426        0.17520       -0.49468
H         -4.17580       -1.34397        0.41796
H         -3.49684        0.49789        1.82014
H         -2.23301       -0.52165        1.56700
H         -1.65471       -2.90462       -0.33215
H         -0.57102       -1.66404       -0.50604
C         -2.50423       -1.11695       -0.93077
C         -3.53855       -0.53353        0.03510
N         -1.51342       -1.91051       -0.20832
N         -2.83964        0.16778        1.12092
N         -0.61748        1.67156        0.13468
H         -0.23704        0.97255       -0.54685
C         -0.77201        3.01298       -0.45065
H         -1.52389        2.98078       -1.23996
H         -1.08464        3.71871        0.31943
H          0.18224        3.33143       -0.87085
H         -1.50423        1.27326        0.53365
