31
1msa1dma1eda_88.log	Energy: -621175.4515643
S         -1.80534       -0.45720       -0.07070
O         -1.21545       -1.15158        1.09004
O         -0.96644       -0.49314       -1.28487
O         -2.21799        0.95756        0.26586
H         -1.03908        1.91231        0.29372
C         -3.34069       -1.28251       -0.45022
H         -3.98402       -1.22773        0.42802
H         -3.80070       -0.78113       -1.30166
H         -3.10920       -2.32012       -0.69224
H          1.44942       -0.43604       -1.18866
H          2.92207       -0.99273       -1.96911
H          1.91781       -2.78288       -0.61393
H          3.46942       -2.31013        0.10372
H          0.80723       -1.57526        1.09657
H          2.03989       -2.28389        1.90326
H          3.09421        0.34875        0.58803
H          4.22287        0.26565       -0.57974
C          2.48525       -0.73695       -0.99814
C          2.44452       -1.96939       -0.09208
N          3.22775        0.39092       -0.42132
N          1.82505       -1.60425        1.18320
N         -0.09135        2.43932        0.34348
C          0.53558        2.39999       -1.00615
C          0.70234        1.76914        1.40395
H         -0.27461        3.40216        0.61745
H          0.34645        1.41111       -1.42533
H          0.06061        3.15535       -1.63280
H          1.61068        2.56402       -0.92230
H          0.85837        0.72546        1.12949
H          1.66490        2.27061        1.51233
H          0.13586        1.80347        2.33465
