34
1msa1eda1tma_52.log	Energy: -645832.7400668
S         -0.17753        0.43587       -0.47357
O          0.52430       -0.59819       -1.24028
O         -0.39925        0.11117        0.95786
O         -1.50586        0.82282       -1.11085
H         -2.57494        0.19116       -0.38523
C          0.80253        1.92041       -0.53731
H          1.75869        1.71714       -0.03973
H          0.95224        2.17704       -1.58674
H          0.25794        2.71225       -0.02167
H          3.76050       -1.13402        1.78411
H          2.16163       -0.68094        1.16246
H          3.33763       -1.98668       -0.51115
H          3.11899       -0.33847       -1.08717
H          5.62828       -1.45549       -0.05105
H          5.35318       -0.77989       -1.51264
H          3.36414        1.21056        2.17046
H          4.47888        1.09786        0.96449
C          3.23530       -0.50602        1.04179
C          3.65497       -0.94610       -0.35357
N          3.50819        0.92122        1.20954
N          5.09675       -0.73753       -0.53335
N         -3.39006       -0.31517        0.17249
C         -3.50457        0.37531        1.47623
H         -2.52607        0.33629        1.95690
H         -3.77668        1.41662        1.29805
H         -4.26912       -0.11311        2.08724
C         -4.61544       -0.19554       -0.64026
H         -4.83321        0.86160       -0.79775
H         -4.44577       -0.67200       -1.60660
H         -5.45390       -0.67704       -0.12900
C         -2.96425       -1.72393        0.34050
H         -2.80374       -2.16132       -0.64583
H         -2.02095       -1.72696        0.88822
H         -3.73613       -2.27937        0.88085
