28
1msa1ma1eda_26.log	Energy: -596522.5120544
S          1.40719       -0.80760       -0.04926
O          0.50474       -0.91011        1.13226
O          2.21671        0.42803       -0.05791
O          0.63553       -0.99617       -1.31907
C          2.54615       -2.17626        0.05056
H          3.10521       -2.07745        0.98124
H          1.97355       -3.10372        0.04005
H          3.21495       -2.12457       -0.80873
H         -3.33266        1.06312        0.05680
H         -3.00962        0.62600       -1.64362
H         -4.11258       -1.22743       -0.34586
H         -2.54105       -1.69775       -1.00579
H         -3.13529       -2.08467        1.52412
H         -1.61877       -1.56179        1.16489
H         -0.95610        1.65312       -0.54975
H         -1.04388        0.41119        0.55650
C         -2.76219        0.40535       -0.60242
C         -3.03550       -1.05823       -0.25903
N         -1.32484        0.67494       -0.39896
N         -2.60945       -1.32716        1.10857
H         -0.72260        0.05147       -0.98972
N          0.43434        2.81779       -0.48259
H          1.18481        2.13049       -0.60489
C          0.55665        3.39486        0.86169
H          1.50901        3.91209        1.02845
H         -0.25996        4.10017        1.04123
H          0.48602        2.58952        1.59751
H          0.55701        3.53447       -1.19036
