23
1msa2ma_28.log	Energy: -537115.9358246
S         -1.37490        0.34313        0.08730
O         -2.38674        1.35667       -0.16072
O         -0.69881        0.35090        1.38777
O         -0.25632        0.39602       -1.04161
H          0.52177        1.00893       -0.69404
C         -2.06662       -1.26313       -0.21342
H         -2.82982       -1.41789        0.55039
H         -2.51829       -1.25290       -1.20565
H         -1.26651       -2.00583       -0.14946
N          1.60079        1.84893        0.04318
H          1.45357        2.84312       -0.10489
C          2.99747        1.47812       -0.21264
H          3.70949        2.01907        0.42007
H          3.11664        0.40732       -0.03473
H          3.23525        1.67625       -1.25990
H          1.33464        1.64973        1.00654
N          0.99775       -2.48377       -0.56865
H          1.48083       -3.20602       -1.09021
C          1.69982       -2.16259        0.67087
H          2.75301       -1.86691        0.53907
H          1.17082       -1.35006        1.17776
H          1.67996       -3.03010        1.33684
H          0.91819       -1.66398       -1.16271
