29
1msa2dma_40.log	Energy: -586426.1676949
S         -1.88793        0.09460        0.01442
O         -1.59435        0.75863        1.26720
O         -1.23482        0.55652       -1.20694
O         -3.49122        0.18876       -0.26192
H         -3.63170        0.82898       -0.97441
C         -1.70811       -1.65246        0.20248
H         -2.30343       -1.96207        1.06165
H         -2.04827       -2.13305       -0.71442
H         -0.62798       -1.81272        0.36862
N          1.47761       -1.54740        0.20600
C          1.69553       -1.82796       -1.20348
C          2.39986       -2.26054        1.07176
H          1.57428       -0.53530        0.33944
H          1.47141       -2.88052       -1.41693
H          1.02272       -1.20735       -1.80365
H          2.73169       -1.63465       -1.53347
H          2.23505       -3.34104        0.98331
H          3.46171       -2.06597        0.83794
H          2.22110       -1.97862        2.11314
N          1.57927        1.48215       -0.06872
C          2.64350        1.84860       -0.98799
C          1.51334        2.33823        1.10574
H          0.68568        1.49244       -0.55253
H          3.61452        1.69950       -0.50234
H          2.60683        1.20245       -1.86984
H          2.59295        2.89917       -1.32256
H          2.42096        2.20425        1.70511
H          1.42810        3.41066        0.85939
H          0.65148        2.05065        1.71218
