31
1msa1dma1eda_129.log	Energy: -621170.9585733
S         -0.45971        0.72579       -0.41506
O          0.32588        0.17248       -1.52023
O         -0.72614       -0.27247        0.68554
O         -1.75963        1.34866       -0.84213
H         -3.04762        0.36576       -0.29979
C          0.49547        2.02508        0.33594
H          1.42082        1.58620        0.72886
H          0.70664        2.76614       -0.43605
H         -0.09673        2.46635        1.13830
H          3.21755       -1.87885        1.24537
H          1.70120       -1.11098        0.73360
H          3.03999       -1.62996       -1.22189
H          2.90436        0.11556       -1.03793
H          5.27155       -1.48423       -0.36379
H          5.16657       -0.22679       -1.40102
H          2.81950        0.08299        2.57645
H          4.04471        0.44716        1.54050
C          2.78326       -0.96336        0.80417
C          3.34949       -0.78014       -0.59669
N          3.05246        0.23368        1.60126
N          4.80450       -0.59845       -0.53077
N         -3.29019       -0.52327        0.20864
C         -3.54424       -1.59143       -0.77688
C         -4.34253       -0.32906        1.21803
H         -2.33451       -0.66662        0.64336
H         -4.46523       -1.37578       -1.32134
H         -2.70290       -1.61972       -1.47029
H         -3.63239       -2.54975       -0.26236
H         -5.27815       -0.05616        0.72659
H         -4.48122       -1.25307        1.78209
H         -4.03578        0.46955        1.89366
