28
1msa1ma1eda_62.log	Energy: -596520.4018731
S          0.87716       -1.32125       -0.03200
O          0.60640       -0.58645        1.22522
O          2.10238       -0.88141       -0.72624
O         -0.32735       -1.29203       -0.94069
H         -0.75390        0.30071       -0.98508
C          1.09175       -3.04092        0.39029
H          1.95434       -3.11650        1.05279
H          0.18826       -3.38581        0.89328
H          1.26276       -3.59776       -0.53101
H         -3.55765        1.01276       -0.94266
H         -3.96919        1.10491        0.76930
H         -2.06984        2.48865        0.55873
H         -1.41353        0.96538        1.22406
H         -1.29943        1.77845       -1.60607
H          0.01702        1.72655       -0.49520
H         -3.92831       -1.20693       -0.05651
H         -2.28384       -1.11777       -0.18730
C         -3.22110        0.71588        0.06948
C         -1.90558        1.42604        0.36355
N         -3.10317       -0.71854        0.26846
N         -0.94712        1.31879       -0.76913
N          1.57738        1.98958        0.09037
H          1.49544        1.53984        1.00171
C          2.24138        3.29017        0.18602
H          3.24156        3.23457        0.63272
H          2.33758        3.72797       -0.81114
H          1.63398        3.96820        0.79207
H          2.13040        1.31996       -0.44800
