31
1msa1dma1eda_36.log	Energy: -621182.5151510
S          2.05795       -0.28220       -0.00902
O          2.72703        0.85752       -0.64798
O          0.95910       -0.87340       -0.81935
O          1.57499        0.02554        1.38293
H          0.06026        0.48325        1.38795
C          3.27989       -1.56659        0.20606
H          3.67015       -1.82525       -0.77854
H          4.07390       -1.17450        0.84149
H          2.80156       -2.42817        0.67184
H         -2.22521        2.30599        0.68083
H         -0.73743        2.88219        1.47429
H         -0.68621        3.27179       -0.93571
H          0.62470        2.20265       -0.44169
H         -0.96825        1.66750       -2.46507
H         -0.29704        0.48860       -1.55364
H         -1.27364        0.79280        2.36056
H         -1.56231        0.07120        0.86474
C         -1.14865        2.13967        0.78506
C         -0.46329        2.26337       -0.57274
N         -0.96320        0.79251        1.39135
N         -0.95569        1.27184       -1.53248
N         -2.57005       -0.89280       -0.10882
C         -4.00582       -0.90252        0.13905
C         -1.99825       -2.22782       -0.27908
H         -2.35939       -0.31805       -0.92688
H         -4.21116       -1.39339        1.09655
H         -4.38021        0.12396        0.19351
H         -4.56977       -1.43618       -0.64116
H         -2.11779       -2.79233        0.65209
H         -2.48737       -2.79315       -1.08653
H         -0.93167       -2.12858       -0.49545
