33
1msa2eda_53.log	Energy: -655916.4404331
S          1.73456       -1.00749       -0.12828
O          1.51174       -2.44633        0.03498
O          1.34229       -0.19618        1.06579
O          1.10579       -0.43386       -1.36385
H         -0.03662        0.69122       -0.99470
C          3.49035       -0.75304       -0.33766
H          3.99500       -1.12145        0.55589
H          3.80954       -1.31355       -1.21670
H          3.67015        0.31355       -0.47722
H         -4.01587       -1.78444        0.67172
H         -3.38840       -2.31376       -0.88968
H         -1.75140       -2.68940        0.90190
H         -1.13213       -1.62238       -0.34198
H         -2.12421       -0.72103        2.27289
H         -0.58191       -0.66847        1.69364
H         -4.32617       -0.26305       -1.30678
H         -3.70439        0.43915        0.02164
C         -3.27218       -1.55689       -0.10844
C         -1.86645       -1.68830        0.46658
N         -3.50390       -0.23360       -0.71329
N         -1.56924       -0.61724        1.42861
H         -0.51087        2.78816        1.46965
H         -0.08339        4.22934        0.54229
H         -1.87115        3.03749       -0.57334
H         -0.40043        2.99048       -1.58013
H         -1.15424        0.76469        0.26047
H         -1.69613        0.81904       -1.25990
H          1.95458        3.29467        1.01990
H          1.48407        1.75569        0.69732
C         -0.02481        3.13592        0.54124
C         -0.84981        2.65082       -0.64466
N          1.36521        2.73208        0.41821
N         -0.92493        1.17215       -0.67812
