33
1msa2eda_83.log	Energy: -655912.7959522
S         -2.02787       -0.65815       -0.05409
O         -1.19252       -0.64038       -1.27471
O         -2.11006        0.70959        0.57282
O         -1.62277       -1.67946        0.93533
C         -3.69635       -1.04006       -0.55601
H         -3.68744       -2.02819       -1.01650
H         -4.33010       -1.03235        0.33077
H         -4.02111       -0.28559       -1.27258
H          0.75428        3.12660        1.41440
H          2.15857        2.10948        1.00419
H          1.44654        3.06883       -1.04448
H          0.82485        1.40965       -1.10263
H         -0.75922        3.26483       -1.70430
H         -1.33116        2.27739       -0.53097
H          0.51921        1.01495        2.47796
H         -0.61251        1.00234        1.23402
C          1.08019        2.23607        0.87269
C          0.71428        2.38647       -0.60145
N          0.42009        1.04200        1.46558
N         -0.61177        2.96793       -0.74663
H          0.84145        0.13616        1.05706
H          3.05537       -1.45923       -1.73480
H          4.42977       -1.91188       -0.74198
H          2.45456       -3.08526        0.02164
H          2.99687       -1.96976        1.28118
H          0.82277       -1.28436       -0.60232
H          0.55496       -1.91516        0.83748
H          2.94566        0.61327       -0.61141
H          4.17003        0.21035        0.40659
C          3.48463       -1.35842       -0.73057
C          2.54720       -2.02080        0.28110
N          3.78373        0.05139       -0.51841
N          1.24161       -1.35692        0.32805
