25
1msa1a1eda_44.log	Energy: -571858.4591184
S          1.50286       -0.24574        0.02883
O          0.84328       -1.55061       -0.12299
O          1.09439        0.51846        1.23498
O          1.36446        0.61770       -1.20267
H          0.28532        1.65167       -0.90440
C          3.25359       -0.55637        0.17578
H          3.40885       -1.17787        1.05805
H          3.58232       -1.07736       -0.72352
H          3.76762        0.39892        0.28098
H         -3.78881       -0.33603       -0.41345
H         -3.17363       -1.97973       -0.41035
H         -2.79122       -1.14247        1.78383
H         -1.22074       -1.25126        0.97014
H         -2.65247        1.14783        1.73572
H         -1.06021        0.74504        1.87459
H         -1.93377        0.35472       -1.67132
H         -1.14632       -1.06448       -1.47330
C         -2.86569       -0.92847       -0.36370
C         -2.17303       -0.71462        0.98257
N         -2.06897       -0.64050       -1.54760
N         -1.87154        0.70822        1.25708
N         -0.47638        2.31540       -0.50593
H         -0.97117        2.81627       -1.23811
H         -0.00484        2.97460        0.10881
H         -1.13474        1.70243        0.09361
