33
1msa2eda_54.log	Energy: -655915.6318055
S          0.56138       -1.64866       -0.10912
O          2.00255       -1.58819        0.17812
O          0.15757       -1.00917       -1.38491
O         -0.28777       -1.14037        1.02598
H         -0.87070        0.31859        0.63754
C          0.15138       -3.38346       -0.24523
H          0.73491       -3.80207       -1.06565
H          0.41071       -3.86904        0.69577
H         -0.91617       -3.47775       -0.44614
H         -2.71217        1.67607       -1.25860
H         -1.84097        0.12554       -1.46052
H         -4.21444       -0.27956       -0.75689
H         -3.05684       -0.82439        0.46571
H         -4.72599        1.57213        0.63102
H         -4.46134        0.41907        1.76006
H         -0.57930        1.79861       -0.18287
H         -1.80910        1.67878        1.01345
C         -2.34456        0.78068       -0.74677
C         -3.47482        0.06207       -0.02116
N         -1.33197        1.19399        0.25006
N         -4.02669        0.94335        1.01072
H          1.33397        1.30019        1.24714
H          2.35539        2.74937        1.19882
H          2.87949        2.29855       -1.19226
H          1.85278        0.85318       -1.14440
H          0.90226        3.60412       -0.76622
H          0.57634        2.60512       -2.00951
H          3.69178        1.00380        1.99483
H          3.25668        0.00243        0.77648
C          2.22805        1.74317        0.77561
C          1.99155        1.85414       -0.72662
N          3.44175        0.97697        1.01292
N          0.76296        2.62685       -1.01090
