33
1msa2eda_133.log	Energy: -655903.0929302
S          0.24826       -1.01755       -0.04488
O          1.48808       -1.78321       -0.21174
O         -0.43313       -0.59398       -1.26530
O          0.51924        0.22573        0.87885
H          1.22728        0.90434        0.41295
C         -0.87129       -1.93896        0.97368
H         -1.13525       -2.83516        0.41005
H         -0.35063       -2.20566        1.89350
H         -1.75435       -1.31808        1.17457
H         -3.43214        2.19077        0.49718
H         -1.90480        1.31167        0.28593
H         -3.18308        1.22306       -1.77652
H         -3.04888       -0.38945       -1.07924
H         -5.44152        1.30703       -0.98389
H         -5.29821       -0.20457       -1.58762
H         -3.09296        0.72103        2.36560
H         -4.27825        0.05176        1.44194
C         -2.98943        1.18756        0.36352
C         -3.50991        0.59174       -0.93753
N         -3.28830        0.28247        1.47248
N         -4.96416        0.41946       -0.86282
H          4.26781        2.34148        0.00505
H          3.40817        1.96171        1.51624
H          5.02696        0.15723        0.78270
H          3.36819       -0.40959        0.99240
H          4.85921       -0.50933       -1.37882
H          3.30547       -1.00694       -1.11257
H          1.91717        2.73307       -0.28525
H          2.36846        1.41056       -1.16092
C          3.53334        1.67067        0.46864
C          4.01361        0.21990        0.37089
N          2.23110        1.77010       -0.21277
N          3.95676       -0.23317       -1.01760
