31
1msa1dma1eda_118.log	Energy: -621170.7542644
S          0.56483       -1.43617       -0.04263
O          1.55949       -1.88162       -1.01567
O         -0.61550       -2.32902        0.12802
O          0.07494       -0.01824       -0.30891
H         -1.42519       -0.11112       -0.63274
C          1.37650       -1.33521        1.54294
H          1.79315       -2.31861        1.76300
H          2.15970       -0.57567        1.46490
H          0.63921       -1.05278        2.29517
H         -4.02637       -0.55079        0.77644
H         -2.41288       -0.25675        1.46218
H         -3.78101        1.84877        1.46256
H         -2.35640        1.99081        0.42795
H         -5.11186        1.65576       -0.49231
H         -3.96923        2.70318       -1.01354
H         -2.28171       -1.48741       -0.60596
H         -2.98834       -0.14617       -1.41270
C         -3.08550       -0.01034        0.63882
C         -3.32448        1.49075        0.53089
N         -2.44564       -0.47171       -0.61077
N         -4.11864        1.76354       -0.66718
N          2.79206        1.41155        0.18096
C          3.72772        0.88458       -0.79982
C          2.98303        2.82429        0.44383
H          1.84054        1.23336       -0.13157
H          4.74314        0.90750       -0.38644
H          3.46776       -0.15213       -1.02827
H          3.73716        1.45632       -1.74567
H          3.96231        2.98333        0.91065
H          2.94306        3.45501       -0.46416
H          2.22031        3.17905        1.14388
