33
1msa2eda_106.log	Energy: -655910.3635059
S          2.17042       -0.18761        0.11073
O          2.09377        0.23641       -1.31139
O          1.59160       -1.51419        0.37775
O          1.60968        0.88584        1.00686
H          0.72600        1.82319        0.05592
C          3.90258       -0.28926        0.52895
H          4.35553       -1.05142       -0.10561
H          4.36007        0.68377        0.35006
H          3.98300       -0.56654        1.58017
H         -1.65172       -0.97671        1.19419
H         -2.88678       -2.09664        1.75091
H         -0.95847       -3.33317        0.83151
H         -2.37640       -3.58588       -0.20391
H         -0.02547       -1.97967       -0.76209
H         -0.83451       -2.98863       -1.75726
H         -2.99333       -1.00047       -0.93192
H         -4.22541       -1.59874       -0.04977
C         -2.39107       -1.71328        0.85280
C         -1.64580       -2.83834        0.13052
N         -3.38147       -1.03749        0.01030
N         -0.95936       -2.28507       -1.03924
H         -1.68798        1.59132       -1.67255
H         -0.92694        0.32266       -0.69638
H         -2.86843        1.31515        0.52085
H         -1.35269        1.64660        1.36851
H         -2.90514        3.58084       -0.17122
H         -2.20064        3.75532        1.28817
H          0.72188        1.85906       -1.57626
H         -0.06117        3.13457       -0.74198
C         -1.14801        1.39132       -0.74268
C         -1.93019        1.87846        0.46741
N          0.13857        2.13228       -0.77976
N         -2.08396        3.33731        0.37286
