31
1msa1dma1eda_11.log	Energy: -621185.2080615
S          1.99041       -0.27856        0.01247
O          1.53320       -1.37211        0.89402
O          2.36804        0.96545        0.70959
O          0.99469       -0.00223       -1.08831
H         -0.13725        0.95142       -0.48955
C          3.44657       -0.87569       -0.83156
H          4.20542       -1.08334       -0.07670
H          3.18284       -1.78583       -1.37055
H          3.78835       -0.10210       -1.51919
H         -3.93737       -1.89601       -0.35288
H         -3.30888       -1.07991       -1.79249
H         -1.73284       -2.78638       -0.86612
H         -1.01862       -1.18416       -0.95994
H         -1.83979       -2.53680        1.47362
H         -0.45606       -1.72357        1.11964
H         -4.23156        0.49647       -0.21375
H         -3.17398       -0.02601        0.92951
C         -3.16740       -1.19657       -0.71320
C         -1.77878       -1.77370       -0.43901
N         -3.29928        0.12164       -0.07120
N         -1.46989       -1.72535        0.98964
N         -0.86239        1.61670       -0.08296
C         -0.70993        2.91419       -0.76357
C         -0.66859        1.67893        1.38462
H         -1.80103        1.18479       -0.26487
H          0.29945        3.28706       -0.58315
H         -0.85576        2.77102       -1.83471
H         -1.44504        3.62521       -0.38025
H          0.36462        1.96178        1.59082
H         -1.37225        2.39923        1.80917
H         -0.85447        0.68126        1.78745
