29
1msa2dma_25.log	Energy: -586438.6730092
S         -1.04845       -1.08295       -0.01106
O         -0.05370       -2.15798       -0.01236
O         -1.07004       -0.25007       -1.25160
O         -0.96879       -0.18526        1.19767
H         -0.56516        1.29666        0.69318
C         -2.64842       -1.86770        0.09409
H         -2.75584       -2.52459       -0.76940
H         -2.67863       -2.44346        1.01937
H         -3.42066       -1.09847        0.09286
N         -0.43807        2.06946       -0.03046
C          0.81204        2.82572        0.16701
C         -1.66520        2.88890       -0.07000
H         -0.41350        1.46355       -0.87328
H          0.76201        3.35288        1.12103
H          1.64636        2.12511        0.17958
H          0.94020        3.54289       -0.64582
H         -1.79005        3.39553        0.88798
H         -1.59324        3.62388       -0.87351
H         -2.50908        2.22301       -0.24971
N          2.83548       -1.12022       -0.07557
C          2.65992       -0.24550       -1.21726
C          2.69442       -0.42252        1.18900
H          2.11742       -1.83930       -0.11664
H          3.43255        0.53404       -1.20841
H          2.77026       -0.81459       -2.14386
H          1.66731        0.24357       -1.25520
H          3.47477        0.34475        1.27598
H          1.70719        0.05721        1.32390
H          2.82518       -1.12709        2.01429
