33
1msa2eda_147.log	Energy: -655905.6637925
S         -0.52815        1.08667       -0.22067
O         -0.27514        0.03688       -1.22930
O         -0.29073        0.64070        1.17437
O         -1.92310        1.65851       -0.34519
H         -2.76614        0.76092        0.58187
C          0.58442        2.43225       -0.56161
H          0.43295        2.74260       -1.59559
H          0.35283        3.24466        0.12752
H          1.59911        2.06013       -0.39072
H         -4.54669       -1.64969        0.90681
H         -4.82724       -0.25164       -0.16768
H         -3.77110       -2.25447       -1.35094
H         -2.81438       -0.77222       -1.46758
H         -2.01929       -3.17497       -0.19587
H         -1.15182       -1.78631       -0.47792
H         -3.65564        0.28708        1.98436
H         -2.37882       -0.63520        1.41358
C         -4.06559       -0.89231        0.28193
C         -3.16658       -1.54443       -0.77674
N         -3.19484       -0.05938        1.14741
N         -2.02505       -2.16750       -0.11833
H          2.73009       -1.70127        0.58051
H          2.10888       -0.67223       -0.71278
H          4.24311       -1.59386       -1.40179
H          4.43128        0.15103       -1.13650
H          5.29549       -1.93264        0.73706
H          6.23039       -0.83276       -0.03084
H          1.93137        0.42774        1.41949
H          3.58107        0.39809        1.58137
C          2.89435       -0.74663        0.04641
C          4.25527       -0.80528       -0.63289
N          2.81486        0.42095        0.91560
N          5.31153       -0.98722        0.36741
