34
1msa1eda1tma_41.log	Energy: -645831.4138193
S          0.13511        0.82027       -0.28042
O          0.05223        0.18505        1.03961
O          0.20363       -0.08006       -1.43076
O          1.33210        1.82584       -0.30134
H          2.27039        1.37815        0.07214
C         -1.24332        1.91693       -0.48662
H         -2.14484        1.29078       -0.45391
H         -1.23441        2.63562        0.33275
H         -1.13812        2.41686       -1.44944
H          4.12787       -0.77931        1.80877
H          2.37092       -0.46801        1.79441
H          2.92698       -2.50000        0.49329
H          2.20202       -1.25394       -0.52247
H          5.01398       -2.04013       -0.51803
H          4.01149       -1.75784       -1.78113
H          3.86424        1.48905        1.26941
H          4.17275        0.72898       -0.16390
C          3.27411       -0.49578        1.17917
C          3.09733       -1.50919        0.05175
N          3.48681        0.83940        0.58594
N          4.25391       -1.45462       -0.84603
N         -3.55093       -0.41524        0.06342
C         -4.96778       -0.32513       -0.23618
H         -5.39756        0.55434        0.25327
H         -5.11436       -0.22094       -1.31559
H         -5.52930       -1.21736        0.10353
C         -2.93646       -1.54096       -0.62367
H         -3.06720       -1.43010       -1.70402
H         -1.86400       -1.56385       -0.41635
H         -3.37854       -2.50798       -0.31490
C         -3.31362       -0.48417        1.49698
H         -2.23727       -0.49157        1.68969
H         -3.74585        0.39585        1.98415
H         -3.76471       -1.38655        1.95301
