28
1msa1ma1eda_07.log	Energy: -596524.5780679
S          1.92727       -0.29639        0.00146
O          1.16700       -0.09810        1.25786
O          2.16762        0.95922       -0.74475
O          1.30502       -1.36100       -0.85443
C          3.53200       -0.93652        0.45101
H          4.02231       -0.19838        1.08604
H          3.38944       -1.87515        0.98651
H          4.10120       -1.09645       -0.46481
H         -1.78705       -2.07516        0.60240
H         -1.08492       -0.59311        1.26461
H         -3.55545       -0.67737        1.71114
H         -3.16072        0.66158        0.62931
H         -4.35180       -1.88397       -0.19521
H         -4.88985       -0.36841       -0.48188
H         -0.32244       -1.03440       -0.96501
H         -1.95425       -0.89023       -1.51857
C         -1.79138       -0.98335        0.52885
C         -3.19755       -0.43053        0.70254
N         -1.27705       -0.61035       -0.80789
N         -4.05403       -0.93054       -0.37500
H         -1.12404        0.44979       -0.85772
N         -0.57124        2.08336       -0.74079
H          0.42647        1.91222       -0.91070
C         -0.73174        2.62062        0.61670
H         -0.24339        3.59223        0.75852
H         -1.79581        2.73498        0.84963
H         -0.28524        1.91034        1.31711
H         -0.88952        2.75419       -1.43299
