32
1msa1dma1tma_06.log	Energy: -611103.4413381
S          1.89171       -0.62326        0.09167
O          1.30761       -1.64220        0.97563
O          2.40326        0.58321        0.77914
O          0.94628       -0.23006       -1.02356
C          3.27517       -1.38071       -0.74577
H          2.91081       -2.25577       -1.28413
H          3.70624       -0.65318       -1.43356
H          4.00231       -1.67299        0.01225
N         -2.75316       -1.12914        0.41624
C         -1.88190       -1.93999       -0.43244
C         -4.13829       -1.13291       -0.03012
H         -2.70686       -1.48554        1.36527
H         -1.77401       -1.45853       -1.41051
H         -0.88638       -2.00303        0.01188
H         -2.27511       -2.95769       -0.59429
H         -4.20323       -0.65628       -1.01563
H         -4.56838       -2.14414       -0.12738
H         -4.75821       -0.55579        0.66222
N         -0.45663        1.76545       -0.09983
C         -1.73777        1.87921       -0.82911
H         -1.53202        1.93830       -1.89894
H         -2.32791        0.98889       -0.59946
H         -2.26503        2.77934       -0.50122
C         -0.67387        1.51684        1.34794
H         -1.30560        0.63212        1.43997
H          0.29751        1.34116        1.81198
H         -1.16668        2.38808        1.78837
C          0.44581        2.91646       -0.32828
H          1.40057        2.68909        0.14905
H          0.59569        3.03788       -1.40193
H         -0.00257        3.81990        0.09339
H          0.06788        0.90522       -0.49200
