33
1msa2eda_39.log	Energy: -655918.0370242
S         -2.23331       -0.32967       -0.02811
O         -1.96364       -1.74724       -0.34876
O         -1.57251        0.62294       -0.96085
O         -1.94313        0.01015        1.40003
C         -3.99274       -0.09208       -0.22483
H         -4.24909       -0.32288       -1.25910
H         -4.50610       -0.76743        0.45975
H         -4.22753        0.94681        0.00772
H         -0.57640        2.18666        0.41582
H          0.50773        2.76043        1.70582
H          1.11189        3.64324       -0.52592
H          2.43316        2.70142        0.17350
H          0.50364        1.38599       -1.60634
H          1.85222        2.12382       -2.19810
H         -0.19885        0.38055        1.65669
H          0.76670        0.05605        0.35240
C          0.44159        2.14391        0.80620
C          1.42302        2.62505       -0.25040
N          0.66204        0.72733        1.18632
N          1.45041        1.69108       -1.37455
H          1.51970        0.58436        1.72254
H          3.67712       -1.74266       -1.09621
H          4.09269       -2.15358        0.56954
H          2.02693       -3.27132       -0.20029
H          1.76002       -2.25572        1.22236
H          1.16242       -1.30601       -1.49769
H          0.03242       -1.85486       -0.44682
H          4.33711        0.14384        0.40497
H          2.90265        0.35984       -0.36018
C          3.37224       -1.60469       -0.04522
C          1.99506       -2.23000        0.15154
N          3.38177       -0.19378        0.35562
N          0.96346       -1.43374       -0.50995
