23
1msa1a1dma_14.log	Energy: -537118.4910538
S          1.45790       -0.41905       -0.11104
O          2.86460       -0.65443       -0.37188
O          0.59017       -0.05750       -1.23921
O          1.28850        0.69282        1.00909
H          0.91507        1.55661        0.59084
C          0.77325       -1.83157        0.71995
H         -0.29565       -1.66061        0.87349
H          0.93673       -2.68824        0.06471
H          1.31002       -1.96283        1.65954
N         -2.23963       -0.52639        0.00514
C         -2.34679        0.60685        0.90496
C         -3.50164       -0.87260       -0.62457
H         -1.53142       -0.34098       -0.70027
H         -3.02305        0.35722        1.72999
H         -1.36603        0.83002        1.33451
H         -2.74202        1.52121        0.42203
H         -4.20746       -1.22534        0.13564
H         -3.97625       -0.02764       -1.15517
H         -3.34623       -1.68410       -1.34010
N          0.26271        2.77765       -0.23579
H          0.89572        3.54282       -0.44515
H         -0.59509        3.16678        0.14181
H          0.04268        2.29784       -1.10671
