31
1msa1dma1eda_99.log	Energy: -621173.4910666
S         -1.76072       -0.56072       -0.04907
O         -1.21661       -1.48391        0.95910
O         -0.93963       -0.41567       -1.26767
O         -2.08297        0.79980        0.53598
H         -1.00176        1.77475        0.32169
C         -3.34739       -1.20854       -0.54611
H         -3.18128       -2.19291       -0.98449
H         -3.97905       -1.28346        0.33910
H         -3.78269       -0.52883       -1.27856
H          1.44196       -1.12671       -1.24301
H          2.95471       -1.97813       -1.61290
H          2.07868       -2.85431        0.44839
H          3.53471       -1.90905        0.82065
H          0.75631       -1.16034        1.31520
H          2.01217       -1.16212        2.35488
H          3.16821        0.46015       -1.84300
H          2.94268        0.59276       -0.21887
C          2.48872       -1.25941       -0.92941
C          2.49621       -1.83791        0.47883
N          3.27283       -0.02161       -0.95694
N          1.75562       -0.95972        1.39443
N         -0.17491        2.49150        0.21804
C          0.42664        2.34512       -1.12862
C          0.77933        2.24555        1.32668
H         -0.58127        3.42055        0.31391
H          0.70667        1.29966       -1.25875
H         -0.32464        2.59366       -1.87789
H          1.29273        3.00466       -1.21735
H          1.17100        1.22408        1.24049
H          1.59491        2.97081        1.27706
H          0.24536        2.34456        2.27236
