25
1msa1a1eda_16.log	Energy: -571862.6380504
S         -1.58662       -0.13520       -0.13238
O         -1.26187       -1.52587       -0.48529
O         -1.04263        0.87611       -1.07074
O         -1.19751        0.18854        1.28979
C         -3.36298        0.03174       -0.16683
H         -3.69670       -0.18484       -1.18195
H         -3.78585       -0.68341        0.53883
H         -3.61933        1.05350        0.11316
H          2.79302       -1.65264        1.14220
H          1.07477       -2.05736        0.81758
H          2.31745       -1.91497       -1.25984
H          1.13038       -0.61914       -1.20212
H          3.65072       -0.17239       -1.80992
H          2.85985        0.92079       -0.89027
H          1.73032       -0.11690        2.43463
H          1.71756        0.80302        1.02980
C          1.85519       -1.30155        0.70720
C          2.07080       -0.97276       -0.76286
N          1.41061       -0.09308        1.47007
N          3.18807       -0.03914       -0.91921
H          0.33694       -0.01871        1.46588
N          1.20259        2.40687        0.09532
H          0.42252        2.00468       -0.44119
H          1.70837        3.04261       -0.51373
H          0.77508        2.98166        0.81661
