25
1msa1a1eda_15.log	Energy: -571863.0872781
S         -1.48266       -0.16885       -0.05086
O         -1.15166        0.63771       -1.23928
O         -1.11813        0.45938        1.23763
O         -0.91771       -1.56689       -0.13643
H          0.45380       -1.56911        0.52487
C         -3.25257       -0.40087       -0.05300
H         -3.53108       -0.89305       -0.98489
H         -3.52165       -1.01500        0.80646
H         -3.71818        0.58267        0.01587
H          3.35702       -1.77415       -0.13334
H          1.93160       -2.11205       -1.15604
H          3.03302        0.14246       -1.66387
H          1.33284        0.27218       -1.19525
H          3.61071        1.11106        0.38018
H          2.04901        1.70051        0.32910
H          1.71031       -2.32788        1.42002
H          1.67389       -0.64517        1.33076
C          2.34455       -1.45132       -0.39184
C          2.33393        0.02005       -0.82807
N          1.49492       -1.53387        0.82420
N          2.63290        0.85269        0.33032
N          0.44856        2.84576        0.18183
H         -0.09377        2.41592        0.92996
H         -0.03269        2.55858       -0.66848
H          0.37751        3.85370        0.26611
