25
1msa1a1eda_62.log	Energy: -571850.7464899
S         -0.98663       -0.60472        0.09236
O         -0.66161       -1.21607        1.36939
O         -0.69769        0.82451       -0.07976
O         -2.51722       -0.83756       -0.25113
H         -3.03722        0.04377       -0.14028
C         -0.20291       -1.53079       -1.20091
H         -0.59577       -2.54733       -1.16237
H         -0.43448       -1.05690       -2.15453
H          0.87574       -1.52510       -0.99563
H          1.89575        0.67892       -1.28663
H          3.55430        1.21086       -0.97651
H          3.47265        0.31367        1.29765
H          1.75192       -0.03913        1.14302
H          3.83850       -1.37455       -0.43096
H          2.89195       -2.03681        0.72110
H          2.21471        3.07557       -0.59786
H          1.15592        2.24190        0.32850
C          2.57394        1.05938       -0.50660
C          2.69420        0.00235        0.58680
N          2.13761        2.32291        0.07662
N          2.92076       -1.32295        0.00080
N         -3.63904        1.52982        0.05025
H         -4.07072        1.68934        0.95483
H         -4.26773        1.87444       -0.66750
H         -2.77396        2.06562        0.01189
