31
1msa1dma1eda_13.log	Energy: -621183.7850400
S         -1.84884        0.16764       -0.06947
O         -2.42078       -1.15401       -0.35809
O         -0.85498        0.62387       -1.08337
O         -1.28234        0.27133        1.31743
C         -3.18446        1.35178       -0.11618
H         -3.62822        1.31520       -1.11130
H         -3.91503        1.06630        0.64075
H         -2.77857        2.34217        0.09024
H          2.52202       -2.28524        0.87708
H          1.10088       -2.84581        1.79731
H          0.95436       -3.53419       -0.53283
H         -0.36397       -2.42874       -0.14587
H          1.25667       -2.13990       -2.24826
H          0.48019       -0.88699       -1.54397
H          1.58173       -0.60518        2.36909
H          1.59089       -0.01411        0.77188
C          1.44236       -2.17099        1.00662
C          0.72168       -2.48992       -0.29979
N          1.18845       -0.77522        1.44626
N          1.17314       -1.61918       -1.38407
H          0.16151       -0.52639        1.48412
N          1.82238        1.34343       -0.12412
C          2.98928        1.34150       -0.99836
C          1.69223        2.54875        0.68829
H          0.96495        1.23287       -0.67257
H          3.90191        1.39050       -0.39387
H          2.99634        0.40732       -1.56492
H          2.99676        2.19244       -1.69550
H          2.52618        2.61283        1.39666
H          1.68768        3.46861        0.08523
H          0.75561        2.49668        1.25056
