34
1msa1eda1tma_60.log	Energy: -645830.9334357
S         -0.35975        1.85372       -0.21298
O         -1.14311        3.04980        0.06768
O         -0.72923        1.06593       -1.39011
O         -0.32975        0.91160        1.05171
H         -1.21269        0.30354        1.13290
C          1.36112        2.27592       -0.31738
H          1.46860        2.93366       -1.18094
H          1.63970        2.79841        0.59800
H          1.92761        1.34668       -0.44262
H         -4.07142       -1.27244        0.16668
H         -3.22298        0.13722       -0.51111
H         -2.73061       -1.91355       -1.80957
H         -1.28905       -1.20814       -1.08326
H         -2.64720       -3.64614       -0.19243
H         -1.05370       -3.38925       -0.45329
H         -3.02716       -0.15988        1.96574
H         -2.09850       -1.48667        1.64173
C         -3.08484       -0.81758        0.00310
C         -2.21888       -1.73414       -0.85465
N         -2.39874       -0.57752        1.28585
N         -1.90535       -2.95900       -0.11364
N          2.65830       -0.78974       -0.02653
C          3.86576       -1.26294       -0.67741
H          3.67967       -1.40584       -1.74592
H          4.66252       -0.52109       -0.56619
H          4.22679       -2.22214       -0.25759
C          2.87623       -0.53817        1.38797
H          3.68223        0.19211        1.51280
H          1.96490       -0.12363        1.82793
H          3.15369       -1.45535        1.94221
C          1.54873       -1.70406       -0.23018
H          0.65460       -1.29763        0.24838
H          1.34841       -1.80967       -1.30105
H          1.74901       -2.70872        0.19257
