28
1msa1ma1eda_105.log	Energy: -596515.4236698
S         -1.51896       -0.33448        0.06068
O         -0.96499        0.22226        1.31219
O         -1.57469       -1.80944        0.02194
O         -0.79385        0.19685       -1.15535
C         -3.18703        0.27931       -0.08843
H         -3.74891       -0.07539        0.77604
H         -3.15112        1.36885       -0.10264
H         -3.61552       -0.10797       -1.01269
H          3.13862       -2.04697       -0.83999
H          2.79949       -0.44147       -1.54551
H          3.36779       -0.41969        0.96807
H          1.86496        0.38354        0.52433
H          2.13243       -1.90883        2.18930
H          0.75656       -1.06263        1.80786
H          1.10583       -2.25836       -2.03127
H          0.73228       -2.18849       -0.39767
C          2.46481       -1.18584       -0.82034
C          2.35430       -0.59434        0.59241
N          1.11243       -1.66334       -1.20721
N          1.59196       -1.50872        1.43536
H          0.41726       -0.86370       -1.34060
N          0.89903        2.43556        0.04625
H          0.33167        2.00076       -0.67733
C          1.02723        3.87276       -0.16364
H          0.07247        4.42126       -0.18833
H          1.64280        4.30735        0.63005
H          1.54245        4.05815       -1.11125
H          0.40283        2.23197        0.90971
