25
1msa1a1eda_53.log	Energy: -571851.3912182
S         -1.18182       -0.67890       -0.33610
O         -0.43086       -0.72583       -1.57745
O         -2.63455       -0.84817       -0.37767
O         -0.86981        0.70418        0.39448
H         -1.74321        1.22920        0.55210
C         -0.47151       -1.83861        0.80221
H         -0.53518       -2.82153        0.33349
H          0.56886       -1.53491        0.97786
H         -1.05021       -1.81173        1.72578
H          4.13663        0.70072        0.73023
H          3.90845       -1.01692        0.32896
H          3.56843        0.47613       -1.60656
H          2.11795       -0.47117       -1.23864
H          1.99361        2.08637       -1.63403
H          1.06966        1.42893       -0.47541
H          2.77338       -0.47664        2.36455
H          1.88541        0.66509        1.61582
C          3.39026       -0.05893        0.45210
C          2.76232        0.34248       -0.87706
N          2.35293       -0.22763        1.47495
N          2.03411        1.60725       -0.74233
N         -3.20603        1.87903        0.68226
H         -3.52882        2.13402        1.60965
H         -3.75629        1.08866        0.34991
H         -3.37126        2.66460        0.06132
