31
1msa1dma1eda_125.log	Energy: -621173.5315058
S          1.71252       -0.89285       -0.00649
O          0.32758       -1.30632       -0.31076
O          1.93786       -0.53872        1.41001
O          2.17657        0.22912       -0.90633
H          1.82350        1.52100       -0.10542
C          2.76539       -2.27548       -0.40702
H          2.62492       -2.51448       -1.46121
H          3.79892       -1.99300       -0.20701
H          2.46555       -3.11424        0.22179
H         -0.12143        3.76895        0.35373
H          0.69200        3.36873       -1.18816
H         -1.68635        2.41357       -0.92886
H         -0.44201        1.21062       -1.29921
H         -2.11850        1.06564        0.79666
H         -0.71815        0.27725        0.68481
H          2.07428        2.93900        0.83832
H          0.93466        1.80324        1.28924
C          0.27439        2.96010       -0.26542
C         -0.80371        1.90452       -0.53013
N          1.36711        2.29604        0.49231
N         -1.11349        1.21708        0.71967
N         -3.62921       -0.40384        0.09264
C         -3.33937       -1.49613        1.01520
C         -3.11966       -0.67437       -1.24778
H         -4.63119       -0.25102        0.05261
H         -2.25440       -1.60454        1.11389
H         -3.75382       -1.26876        2.00105
H         -3.74046       -2.46717        0.67919
H         -2.03132       -0.78540       -1.20077
H         -3.52992       -1.59717       -1.69126
H         -3.35575        0.16390       -1.91025
