28
1msa1ma1eda_54.log	Energy: -596521.5574167
S          1.80339       -0.30749       -0.11012
O          1.66778       -1.67493       -0.61871
O          1.11319       -0.05314        1.18164
O          1.41233        0.74100       -1.12342
H          0.05819        1.42571       -0.83880
C          3.54357       -0.02251        0.17937
H          3.88451       -0.75727        0.90923
H          4.06900       -0.15111       -0.76712
H          3.67496        0.98977        0.56195
H         -3.89812       -1.58265       -0.31583
H         -3.05479       -1.01641       -1.76961
H         -1.68152       -2.62902       -0.39611
H         -0.89641       -1.09148       -0.65651
H         -1.87982       -2.10755        1.84377
H         -0.64743       -1.06330        1.51605
H         -4.06537        0.80036       -0.44823
H         -3.06088        0.37947        0.79085
C         -3.04881       -0.98315       -0.67526
C         -1.73791       -1.56342       -0.14198
N         -3.15300        0.41479       -0.22662
N         -1.61273       -1.30166        1.29171
N         -0.82405        1.98480       -0.57378
H         -0.95066        2.71842       -1.26732
C         -0.64915        2.54349        0.78654
H         -1.56775        3.03873        1.10557
H         -0.39881        1.71434        1.44892
H          0.17844        3.25298        0.78291
H         -1.68200        1.36324       -0.58520
