33
1msa2eda_162.log	Energy: -655901.9205417
S          0.15493       -1.87086       -0.11483
O         -0.18629       -3.07367       -0.84709
O          0.16897       -0.59292       -0.85585
O          1.54489       -2.04068        0.58954
H          2.19866       -1.20071        0.40908
C         -0.96558       -1.68818        1.25306
H         -1.95279       -1.48656        0.82588
H         -0.95178       -2.61465        1.82714
H         -0.63462       -0.84350        1.86010
H         -3.39469        2.09522       -1.01827
H         -4.47164        1.26250        0.11456
H         -2.88418        2.64183        1.35000
H         -2.62292        0.93525        1.69967
H         -0.76837        1.01945        0.11540
H         -0.96716        2.63775       -0.02899
H         -3.77838       -0.35285       -1.41701
H         -2.19488       -0.00144       -1.25217
C         -3.43817        1.30623       -0.24809
C         -2.53013        1.69898        0.91865
N         -3.08413       -0.01884       -0.75841
N         -1.11450        1.84824        0.59374
H          3.29549        2.87003       -0.13164
H          1.75022        3.19554        0.64825
H          2.90052        1.29427        1.74509
H          1.31824        0.88897        1.08855
H          2.67734        0.11303       -0.91342
H          3.94054        0.01642        0.13396
H          2.27168        2.19572       -2.03362
H          0.90597        1.65603       -1.29359
C          2.28660        2.47103        0.02470
C          2.34207        1.15964        0.81457
N          1.62788        2.36936       -1.27314
N          2.92711        0.02743        0.07183
