32
1msa1dma1tma_03.log	Energy: -611106.8965056
S          1.72272       -0.57025        0.02012
O          1.28697       -1.71657        0.82591
O          2.14570        0.62245        0.78684
O          0.68389       -0.18189       -1.01459
C          3.13308       -1.09825       -0.94004
H          3.91938       -1.38491       -0.24117
H          2.83291       -1.95146       -1.54872
H          3.45814       -0.26861       -1.56778
N         -2.03737       -1.23161       -0.07013
C         -2.98543       -1.70080       -1.06740
C         -2.04782       -2.04787        1.13684
H         -1.09729       -1.24005       -0.46282
H         -4.00924       -1.57085       -0.69647
H         -2.88055       -1.11492       -1.98622
H         -2.85657       -2.76587       -1.32536
H         -2.99015       -1.89711        1.67773
H         -1.94333       -3.12554        0.92928
H         -1.21247       -1.75750        1.77852
N         -0.65578        1.86108       -0.01622
C          0.27315        3.00062       -0.19671
H          1.21577        2.74025        0.28688
H          0.44037        3.15036       -1.26416
H         -0.16532        3.89936        0.24426
C         -1.92978        2.03386       -0.74865
H         -1.71221        2.17644       -1.80821
H         -2.51344        1.12264       -0.60362
H         -2.45789        2.90660       -0.35589
C         -0.89050        1.56661        1.42040
H         -1.54088        0.69283        1.47382
H          0.07322        1.34900        1.88261
H         -1.36302        2.43423        1.88852
H         -0.15763        1.00601       -0.43061
