29
1msa1ma1tma_03.log	Energy: -586445.8444818
S         -2.07605       -0.14315        0.00441
O         -3.38888        0.49854        0.01540
O         -1.25449        0.10118        1.23566
O         -1.25412        0.15236       -1.21859
H          0.00293        1.28910       -0.75707
C         -2.34958       -1.90996       -0.03615
H         -2.92044       -2.18320        0.85178
H         -2.91276       -2.14356       -0.94012
H         -1.38416       -2.41770       -0.04330
N          0.61501        1.62884        0.02080
H          0.03361        1.32088        0.82726
C          0.89295        3.07262       -0.01208
H          1.48311        3.35427        0.86071
H          1.44613        3.31749       -0.91936
H         -0.04962        3.62036       -0.00474
H          1.46958        1.00764        0.01637
N          2.44637       -0.49883        0.00184
C          1.94659       -1.15352       -1.20866
H          0.85327       -1.10804       -1.23068
H          2.32606       -0.63084       -2.09160
H          2.26793       -2.20677       -1.26454
C          3.90297       -0.42842        0.00200
H          4.24795        0.12006       -0.87911
H          4.24894        0.09800        0.89601
H          4.36570       -1.42972       -0.01081
C          1.94701       -1.18029        1.19780
H          2.32857       -0.67828        2.09174
H          0.85371       -1.13355        1.22207
H          2.26701       -2.23501        1.22908
