31
1msa1dma1eda_78.log	Energy: -621175.9432613
S          1.61204       -0.74018       -0.07462
O          0.98275       -0.95977       -1.38611
O          0.68329       -0.80680        1.07403
O          2.40391        0.54757       -0.02633
H          1.48764        1.58321        0.59547
C          2.83308       -2.02442        0.14568
H          3.55623       -1.95282       -0.66690
H          3.31813       -1.87844        1.11080
H          2.31645       -2.98424        0.11496
H         -0.20080        3.92523       -0.13449
H          0.96205        2.99487       -1.12008
H         -1.45711        2.45062       -1.67725
H         -0.53926        1.04469       -1.12812
H         -2.56757        2.47019        0.40020
H         -2.28736        0.84062        0.28359
H          1.18308        3.02358        1.48544
H         -0.03926        1.87528        1.35224
C          0.17713        2.92500       -0.36495
C         -0.96358        2.00139       -0.80585
N          0.75586        2.33648        0.87133
N         -1.83986        1.76703        0.33476
N         -3.00223       -0.98951        0.06291
C         -2.53674       -1.71916        1.24089
C         -2.42055       -1.50751       -1.17440
H         -4.01385       -1.05105        0.00737
H         -1.45711       -1.57557        1.33936
H         -3.02233       -1.31754        2.13524
H         -2.74346       -2.80096        1.18322
H         -1.33407       -1.38103       -1.14857
H         -2.63499       -2.57719       -1.33461
H         -2.81090       -0.94445       -2.02771
