34
1msa1eda1tma_04.log	Energy: -645844.1709174
S          2.00261        0.10664       -0.04546
O          1.43644       -0.19245        1.29662
O          1.49115        1.38897       -0.59474
O          1.86528       -1.02721       -0.99366
C          3.75945        0.33095        0.19984
H          3.90552        1.15820        0.89493
H          4.16607       -0.59296        0.61198
H          4.21315        0.55298       -0.76630
H         -0.05652       -2.92909        0.25682
H         -1.66124       -3.50190        0.73243
H         -1.58539       -2.97288       -1.64235
H         -2.74479       -1.93731       -0.78665
H          0.01610       -1.06673       -1.39191
H         -1.27613       -0.72438       -2.33599
H         -1.30078       -2.00667        2.35657
H         -0.30457       -1.07195        1.47702
C         -1.09823       -2.61701        0.41639
C         -1.67656       -2.15273       -0.91556
N         -1.19664       -1.57488        1.44484
N         -1.00449       -0.93227       -1.37941
N         -1.68691        1.32735        0.04369
C         -3.11622        1.00028        0.23780
H         -3.53653        0.67238       -0.71477
H         -3.17045        0.18430        0.96051
H         -3.64981        1.88454        0.59519
C         -1.05505        1.75534        1.31617
H         -1.20561        0.97047        2.05496
H          0.01075        1.89287        1.14151
H         -1.53096        2.68542        1.64064
C         -1.47119        2.33275       -1.02343
H         -0.39416        2.44591       -1.15637
H         -1.92231        1.96448       -1.94645
H         -1.93959        3.27653       -0.73309
H         -1.25439        0.41636       -0.33817
