23
1msa1a1dma_25.log	Energy: -537113.9697101
S         -1.00123       -0.64057       -0.24817
O         -0.06044       -0.63144       -1.35298
O         -2.41814       -0.87405       -0.52537
O         -0.86782        0.70396        0.57946
H         -1.75245        1.23597        0.53533
C         -0.44118       -1.83001        0.95050
H         -0.45385       -2.80515        0.46247
H          0.57372       -1.56409        1.24552
H         -1.11847       -1.81406        1.80374
N          3.68887        0.64640       -0.01541
C          2.60389        1.60592       -0.17968
C          3.21391       -0.65830        0.41528
H          4.18616        0.54791       -0.89360
H          2.14119        1.79529        0.79502
H          3.00890        2.55313       -0.54730
H          1.81016        1.26304       -0.86182
H          2.79738       -0.56723        1.42642
H          2.43445       -1.08130       -0.24164
H          4.05075       -1.36077        0.46631
N         -3.19634        1.89564        0.34059
H         -3.69367        2.18576        1.17596
H         -3.68967        1.10791       -0.07602
H         -3.21123        2.66497       -0.32134
