31
1msa1dma1eda_92.log	Energy: -621174.2856392
S          1.89707       -0.70769       -0.01768
O          1.16964       -1.61698       -0.91653
O          1.33709       -0.58269        1.34285
O          2.09647        0.66168       -0.63454
H          1.07855        1.63413       -0.15348
C          3.54985       -1.36395        0.14710
H          3.46699       -2.35412        0.59612
H          3.99466       -1.42987       -0.84591
H          4.12794       -0.69857        0.78844
H         -2.00409       -2.25958       -0.09920
H         -1.22733       -1.11222        0.98073
H         -3.56288       -1.36819        1.62960
H         -3.33195        0.26733        0.98573
H         -4.50577       -1.95300       -0.52608
H         -5.25308       -0.57944       -0.05178
H         -0.71320       -0.69149       -1.31481
H         -2.30112       -0.37113       -1.63644
C         -1.97743       -1.19475        0.18680
C         -3.34824       -0.79514        0.71391
N         -1.57976       -0.32571       -0.92139
N         -4.35962       -0.96684       -0.33252
N          0.40295        2.43748        0.15582
C         -0.41970        1.99078        1.30645
C         -0.40283        2.84879       -1.01694
H          1.01457        3.19890        0.44570
H         -1.10421        1.23152        0.92823
H          0.23669        1.53958        2.04957
H         -0.97065        2.84205        1.71299
H         -1.01505        1.98720       -1.29507
H         -1.03553        3.69906       -0.75210
H          0.27184        3.11573       -1.83087
