35
1msa2tma_12.log	Energy: -635746.2387619
N         -2.75023       -0.13805       -0.16323
C         -2.43924        1.22341       -0.56568
H         -1.37932        1.42705       -0.38739
H         -2.63461        1.35018       -1.63506
H         -3.03824        1.97310       -0.01349
C         -4.12879       -0.47767       -0.47024
H         -4.31326       -0.34870       -1.54075
H         -4.31960       -1.52408       -0.21462
H         -4.85167        0.15116        0.08390
C         -2.45641       -0.34019        1.24734
H         -2.66417       -1.37873        1.52227
H         -1.39750       -0.14817        1.44040
H         -3.06263        0.31702        1.89979
S          1.25745       -1.70885       -0.02298
O          2.65725       -1.64423       -0.38355
O          0.82556       -1.35479        1.32343
O          0.77488       -3.24449       -0.27264
H          0.23718       -3.51143        0.48600
C          0.29659       -0.82589       -1.21713
H          0.54568        0.23379       -1.07482
H          0.58420       -1.18038       -2.20713
H         -0.76814       -0.98590       -1.01384
N          1.11262        2.20330       -0.03254
C          2.53261        1.96910       -0.25762
H          2.82576        1.00286        0.16113
H          2.73857        1.94826       -1.33224
H          3.16286        2.75327        0.20137
C          0.69578        3.46819       -0.61364
H          0.89780        3.46828       -1.68910
H         -0.37944        3.61089       -0.46703
H          1.21978        4.33237       -0.16333
C          0.79463        2.14437        1.38699
H         -0.27872        2.30315        1.53308
H          1.05029        1.15776        1.78233
H          1.33684        2.91329        1.96863
