28
1msa1ma1eda_174.log	Energy: -596508.6764445
S          0.85573       -0.95064        0.19868
O          0.17183       -0.70741        1.45921
O          2.22200       -1.47929        0.24290
O          0.87182        0.37847       -0.66178
H          1.86433        0.70963       -0.78275
C         -0.16000       -2.00416       -0.80338
H         -0.23705       -2.95706       -0.27711
H         -1.15072       -1.54248       -0.91298
H          0.33106       -2.13772       -1.76729
H         -4.06969        0.02149        1.15231
H         -2.46178       -0.72066        1.28323
H         -2.24952        1.68958        1.41649
H         -1.48914        1.10325       -0.06445
H         -4.08964        2.44661        0.08279
H         -2.77697        2.86808       -0.79554
H         -3.87630       -1.58156       -0.59427
H         -3.66089       -0.12209       -1.31418
C         -3.10549       -0.11879        0.63361
C         -2.45269        1.24258        0.43290
N         -3.25067       -0.78619       -0.66139
N         -3.29490        2.07808       -0.42976
N          3.35862        1.05930       -0.77557
H          3.75584        0.12434       -0.70539
C          3.66644        1.83337        0.43552
H          4.74086        1.97020        0.59702
H          3.18967        2.81321        0.36460
H          3.24467        1.31114        1.29678
H          3.73771        1.50370       -1.60560
