25
1msa1a1eda_14.log	Energy: -571863.5543817
S         -1.89074       -0.10120       -0.08112
O         -2.06774        1.35496       -0.25842
O         -1.46030       -0.47745        1.29749
O         -0.98778       -0.70954       -1.10587
C         -3.49358       -0.84677       -0.32710
H         -4.17677       -0.43095        0.41381
H         -3.82714       -0.60640       -1.33684
H         -3.39336       -1.92451       -0.19868
H          2.89205       -0.68396        1.67949
H          2.21893       -2.14591        0.94234
H          4.27586       -1.55933       -0.22043
H          2.90289       -1.34548       -1.30813
H          4.35204        0.83117        0.01191
H          4.05868        0.61631       -1.58460
H          0.44166       -0.54024        1.24065
H          1.26343        0.68215        0.46170
C          2.44087       -1.08983        0.76902
C          3.38820       -0.93871       -0.41458
N          1.17695       -0.37483        0.53041
N          3.68140        0.46813       -0.65673
H          0.67565       -0.66209       -0.33573
N          0.71591        2.36899        0.30295
H          0.77638        3.01600        1.08207
H         -0.27818        2.24007        0.08106
H          1.16361        2.80452       -0.49667
