33
1msa2eda_101.log	Energy: -655911.8937881
S         -0.20791       -1.56960       -0.18419
O         -0.27480       -0.66818       -1.35229
O         -0.77045       -1.00839        1.06019
O          1.19629       -2.07456        0.04605
H          1.93177       -1.00317        0.83954
C         -1.16121       -3.01945       -0.59587
H         -0.74367       -3.46022       -1.50106
H         -1.10589       -3.71802        0.23901
H         -2.19077       -2.69982       -0.76173
H          4.22961        0.89449        0.66429
H          3.82243       -0.49927       -0.37428
H          3.21335        1.72933       -1.44517
H          1.81752        0.66196       -1.21729
H          2.40073        3.05728        0.32458
H          0.95196        2.46712       -0.23728
H          2.99608       -0.48604        2.08489
H          1.87515        0.60711        1.46737
C          3.41446        0.34264        0.18753
C          2.56434        1.26676       -0.69112
N          2.51175       -0.18115        1.24537
N          1.86305        2.21212        0.16894
H         -2.70884        0.40825       -0.79212
H         -3.68142        1.86140       -0.57973
H         -1.87451        2.92729        0.71906
H         -1.02778        1.38036        0.84562
H         -0.69493        1.43169       -1.50435
H         -1.37504        2.92222       -1.62961
H         -2.89927       -0.04344        1.50370
H         -3.78658        1.30979        1.78517
C         -2.94623        1.21161       -0.08617
C         -1.65258        1.99240        0.18775
N         -3.56221        0.60678        1.08800
N         -0.86179        2.30662       -1.00630
