33
1msa2eda_142.log	Energy: -655902.9783846
S         -0.14144        1.02742        0.00517
O          0.00787        0.06321       -1.08875
O         -0.10818        0.48724        1.36357
O         -1.45194        1.86148       -0.21484
H         -2.29710        1.23734       -0.48007
C          1.09454        2.28786       -0.14724
H          2.06615        1.80756        0.03415
H          1.03418        2.70504       -1.15230
H          0.89263        3.04992        0.60596
H         -3.88091       -1.56611       -1.50162
H         -2.16109       -1.09231       -1.53393
H         -2.62294       -2.62927        0.34792
H         -2.07893       -1.05171        0.91808
H         -4.81072       -2.07753        1.06290
H         -3.92123       -1.32129        2.20997
H         -3.82313        0.77351       -1.74515
H         -4.18816        0.49579       -0.15946
C         -3.09632       -1.00594       -0.97486
C         -2.90831       -1.57184        0.42962
N         -3.45492        0.42090       -0.86691
N         -4.12295       -1.34874        1.21815
H          3.81921       -1.38684        1.61267
H          2.23066       -0.61323        1.44275
H          2.47661       -2.36290       -0.22970
H          2.39300       -0.78723       -1.01745
H          4.83525       -2.36553       -0.62682
H          4.20906       -1.79786       -2.02615
H          4.10681        0.98828        1.64488
H          4.63067        0.47624        0.17359
C          3.20826       -0.73383        0.96462
C          3.02060       -1.41914       -0.38281
N          3.80901        0.58561        0.76310
N          4.32007       -1.59472       -1.03989
