23
1msa1a1dma_17.log	Energy: -537116.6129042
S         -1.19679       -0.51817       -0.04269
O         -0.26568       -1.50742        0.47447
O         -0.95052        0.05992       -1.36277
O         -1.35670        0.65526        1.00305
H         -1.05938        1.55908        0.58242
C         -2.82443       -1.23526       -0.01311
H         -2.80928       -2.09108       -0.68885
H         -3.03611       -1.55546        1.00687
H         -3.54306       -0.48856       -0.34916
N          2.69572       -0.46778        0.57454
C          3.38445       -1.01192       -0.58219
C          2.32301        0.92018        0.39227
H          1.85412       -1.00950        0.74684
H          4.35061       -0.50882       -0.70731
H          3.58032       -2.07571       -0.42459
H          2.81978       -0.89903       -1.52557
H          3.22438        1.54339        0.34228
H          1.73949        1.09803       -0.53279
H          1.72910        1.25281        1.24966
N         -0.56674        2.83041       -0.20625
H         -0.42913        2.43137       -1.13316
H          0.32563        3.18860        0.11925
H         -1.21559        3.60703       -0.28073
