23
1msa2ma_05.log	Energy: -537126.2059690
S          1.46310        0.25183        0.07016
O          0.72666       -0.35741        1.21077
O          2.43300        1.28085        0.43949
O          0.47793        0.70340       -0.98514
C          2.36893       -1.07515       -0.71567
H          3.09271       -1.45741        0.00487
H          1.66692       -1.85630       -1.00908
H          2.87812       -0.66714       -1.58899
N         -1.75876        1.15156        0.30286
H         -0.85050        1.05974       -0.26920
H         -2.00533        0.14506        0.54790
C         -2.82656        1.84510       -0.43691
H         -3.74464        1.86714        0.15208
H         -2.51383        2.86303       -0.67100
H         -3.00706        1.30724       -1.36784
H         -1.50784        1.62584        1.16838
N         -1.86223       -1.57510        0.74412
H         -0.94283       -1.46795        1.18154
C         -1.68667       -2.17059       -0.58564
H         -1.21613       -3.16124       -0.56096
H         -2.65608       -2.26163       -1.08368
H         -1.05367       -1.50700       -1.18279
H         -2.43740       -2.16477        1.33561
