28
1msa1ma1eda_15.log	Energy: -596523.9066032
S          0.92527       -1.15141        0.10687
O          0.66213       -0.39551       -1.15909
O         -0.23678       -1.96973        0.51604
O          1.42876       -0.26097        1.18210
C          2.25040       -2.28511       -0.27510
H          1.91251       -2.95207       -1.06836
H          3.11612       -1.70663       -0.59819
H          2.47979       -2.84773        0.63016
H         -1.26619        0.28803        1.28589
H         -2.31920        1.71624        1.33099
H         -3.55359       -0.47617        1.19025
H         -3.97143        0.65856       -0.09917
H         -2.01440       -1.51191       -0.45703
H         -3.53590       -1.45109       -1.10386
H         -0.46327        2.06347       -0.11181
H         -0.73684        0.63931       -0.94142
C         -1.98721        0.87705        0.71438
C         -3.16827        0.01405        0.28242
N         -1.24727        1.41615       -0.45589
N         -2.75865       -0.88978       -0.77849
H         -1.86719        1.87282       -1.12101
N          1.03951        2.56954        0.51472
H          1.13478        3.32688        1.18324
C          1.96465        2.74475       -0.61295
H          3.01173        2.84006       -0.30184
H          1.87820        1.86889       -1.26145
H          1.69069        3.63607       -1.18556
H          1.27457        1.69177        0.99197
