25
1msa1a1eda_65.log	Energy: -571843.1209202
S         -1.72352       -0.15415       -0.04049
O         -1.67477        0.56942        1.22308
O         -1.15234        0.44058       -1.23314
O         -3.29845       -0.44820       -0.34007
H         -3.81793        0.06127        0.29820
C         -1.11061       -1.80049        0.14859
H         -0.02694       -1.72779        0.34974
H         -1.63259       -2.26370        0.98586
H         -1.30297       -2.33416       -0.78265
H          3.90113       -1.38887       -0.31126
H          2.51174       -1.92413       -1.27248
H          2.99440        0.45185       -1.69205
H          1.40861        0.26027       -0.94335
H          3.77764        1.34839        0.33491
H          2.19598        1.84348        0.39637
H          2.43504       -2.54583        1.15202
H          2.21978       -0.94656        1.45990
C          2.81026       -1.28478       -0.43284
C          2.48437        0.17194       -0.75781
N          2.07129       -1.68050        0.76749
N          2.81574        1.03192        0.37399
N          0.36787        2.88759        0.18231
H          0.27065        3.89682        0.19651
H         -0.19191        2.50589        0.93997
H         -0.05023        2.54184       -0.67694
