20
1msa1a1ma_07.log	Energy: -512465.9790040
S         -1.18617       -0.18036       -0.00270
O         -0.64391        0.47944        1.23198
O         -1.02455       -1.63527       -0.02019
O         -0.65308        0.50682       -1.22669
H          0.66883        1.56006       -0.78688
C         -2.94117        0.15360        0.00715
H         -3.09459        1.23278        0.01975
H         -3.37186       -0.28734       -0.89216
H         -3.36559       -0.30693        0.89962
N          3.27610       -0.13020       -0.01803
H          3.85724       -0.17737       -0.84976
C          2.34563       -1.27737        0.01870
H          2.85519       -2.24684        0.01364
H          1.72078       -1.21081        0.91148
H          1.67147       -1.22829       -0.83847
H          3.90961       -0.16658        0.77508
N          1.28740        1.84756        0.00872
H          2.15814        1.24327       -0.00117
H          0.67738        1.54653        0.80515
H          1.49312        2.84064        0.01623
