33
1msa2eda_09.log	Energy: -655917.8218199
S          1.26378       -1.41679       -0.10479
O          1.59179       -0.39931       -1.13906
O          0.55179       -2.59645       -0.60090
O          0.56061       -0.75609        1.05703
C          2.82437       -1.98192        0.55841
H          3.38309       -2.44442       -0.25579
H          3.36576       -1.12554        0.96123
H          2.61711       -2.71098        1.34201
H         -0.12873        3.61254        0.00412
H         -0.16584        2.79601        1.59003
H          2.12971        3.58986        0.95478
H          2.06069        1.83981        1.19607
H          3.07535        2.96550       -1.00267
H          2.30169        1.50933       -1.07166
H         -1.41640        1.54558       -0.11985
H          0.03727        1.40715       -0.99982
C          0.21332        2.74022        0.56639
C          1.73786        2.65791        0.53631
N         -0.36229        1.53124       -0.06412
N          2.19481        2.49638       -0.83836
H         -0.07188        0.66400        0.46365
H         -4.59682       -0.27592       -0.48659
H         -3.53128        0.24859       -1.80219
H         -2.94049       -2.02375       -0.87104
H         -1.61737       -0.88829       -0.83473
H         -2.98260       -1.99519        1.42536
H         -1.46160       -1.38315        1.28988
H         -3.85832        1.98291       -0.11318
H         -3.19436        0.97194        1.00699
C         -3.56955        0.03350       -0.72921
C         -2.59572       -1.09909       -0.39241
N         -3.18163        1.23890        0.02156
N         -2.43956       -1.22457        1.05616
