34
1msa1eda1tma_14.log	Energy: -645839.3954323
S         -1.82117       -1.04956        0.05510
O         -2.82574       -0.07413        0.52941
O         -1.04249       -1.70449        1.12161
O         -0.92342       -0.42436       -0.98603
C         -2.70162       -2.33647       -0.81442
H         -3.38081       -2.81101       -0.10565
H         -3.25653       -1.88223       -1.63531
H         -1.97348       -3.05625       -1.18867
H          2.29119       -2.06908       -0.40740
H          1.57887       -0.67461       -1.20705
H          3.95689       -0.78097       -1.72356
H          3.66025        0.64288       -0.71222
H          4.74824       -1.89091        0.28270
H          5.50726       -0.44403        0.22757
H          0.91005       -0.89338        1.10980
H          2.46360       -0.60348        1.57547
C          2.26762       -0.96557       -0.40736
C          3.66900       -0.45367       -0.71176
N          1.77425       -0.41382        0.85252
N          4.60179       -0.88726        0.33002
N         -0.39582        1.99592       -0.07032
C          0.91538        2.47715       -0.55650
H          1.67970        1.85348       -0.08764
H          0.95186        2.36366       -1.64126
H          1.04189        3.52876       -0.28641
C         -1.54113        2.70818       -0.68306
H         -1.46494        2.62259       -1.76763
H         -2.45596        2.21962       -0.34382
H         -1.51876        3.75901       -0.38350
C         -0.47065        2.01345        1.41317
H         -1.41175        1.54843        1.70979
H          0.37021        1.43202        1.79156
H         -0.41743        3.04969        1.75763
H         -0.50140        0.98040       -0.39204
