26
1msa1ma1dma_37.log	Energy: -561779.2879436
S          1.61102        0.09550       -0.05810
O          1.74276        0.70720       -1.38289
O          1.52114       -1.40235       -0.08759
O          0.46338        0.65013        0.73920
H         -0.90502       -0.47298        0.47489
C          3.08137        0.47954        0.87378
H          3.93489        0.06314        0.33839
H          3.16208        1.56465        0.94085
H          2.99038        0.03431        1.86427
N         -1.13226       -1.38566        0.01926
C         -1.61421       -1.12604       -1.35494
C         -2.01744       -2.21738        0.85189
H         -0.15092       -1.76406       -0.03763
H         -2.57060       -0.60279       -1.30815
H         -0.87239       -0.50743       -1.86265
H         -1.72930       -2.07563       -1.87948
H         -2.98405       -1.72227        0.96056
H         -2.15232       -3.19074        0.37765
H         -1.55785       -2.34596        1.83187
N         -1.82506        2.37506       -0.31737
H         -2.09463        2.23504       -1.28294
C         -2.77472        1.80939        0.61940
H         -2.96410        0.72080        0.52017
H         -2.41693        1.98145        1.63802
H         -3.74437        2.30759        0.52170
H         -0.88817        2.00815       -0.17170
