31
1msa1dma1eda_17.log	Energy: -621182.6245177
S         -1.83052        0.19844       -0.05618
O         -1.50726       -0.55712       -1.28613
O         -1.06426        1.48783        0.04058
O         -1.67569       -0.59252        1.18626
C         -3.54633        0.67256       -0.17889
H         -3.67156        1.26926       -1.08253
H         -4.14095       -0.23963       -0.23507
H         -3.80636        1.25025        0.70809
H          2.53781        1.95659        1.68453
H          3.25550        0.40676        1.16284
H          3.51731        2.00975       -0.61772
H          2.33072        0.80970       -1.13865
H          1.78948        3.27895       -1.46260
H          0.60824        2.44502       -0.68478
H          1.01772        0.18581        2.21071
H          0.33289        0.98316        0.92394
C          2.44762        1.12267        0.98500
C          2.49800        1.65054       -0.44482
N          1.16414        0.42143        1.23163
N          1.57578        2.76087       -0.61925
H          1.11787       -0.50182        0.65280
N          0.95633       -1.87496       -0.26514
C          0.54184       -2.94987        0.63660
C          2.05678       -2.25752       -1.14234
H          0.14470       -1.59186       -0.82413
H          1.34806       -3.16828        1.34690
H         -0.34368       -2.61850        1.18366
H          0.30305       -3.87775        0.09738
H          2.96103       -2.43773       -0.55026
H          1.83967       -3.17104       -1.71512
H          2.26331       -1.45080       -1.85073
