32
1msa1dma1tma_29.log	Energy: -611096.7083453
S          1.29731       -1.15721       -0.14717
O          2.31780       -0.35957       -0.86397
O          0.23021       -1.71605       -0.98043
O          0.75256       -0.34976        1.02079
H          0.80090        1.06413        0.68222
C          2.13976       -2.52535        0.63031
H          2.92275       -2.13190        1.27837
H          1.40834       -3.09281        1.20598
H          2.56632       -3.14344       -0.16027
N          0.90146        2.12383        0.37991
C          0.44729        2.25075       -1.02530
C          2.31760        2.50527        0.58132
H          0.29458        2.66993        0.98916
H          1.06554        1.58661       -1.63127
H         -0.59234        1.92853       -1.08603
H          0.54737        3.28674       -1.35578
H          2.92221        1.81980       -0.01460
H          2.47684        3.53990        0.27047
H          2.56532        2.38452        1.63625
N         -3.30443        0.11373        0.09640
C         -3.26334       -1.25042        0.60633
H         -3.67629       -1.27531        1.61983
H         -3.88204       -1.89377       -0.02654
H         -2.23964       -1.66255        0.62639
C         -2.80811        0.16477       -1.27106
H         -3.42942       -0.47229       -1.90778
H         -2.88969        1.18983       -1.65239
H         -1.76420       -0.18464       -1.36233
C         -2.55496        1.00528        0.96238
H         -2.61009        2.02837        0.56853
H         -3.00069        1.01029        1.96238
H         -1.49599        0.70178        1.06300
