28
1msa1ma1eda_148.log	Energy: -596506.9853988
S          0.71045       -0.45572       -0.23373
O          1.04269       -1.17722        0.98209
O          0.77861        1.01315       -0.21155
O         -0.72828       -0.86034       -0.72977
H         -1.37414        0.01720       -0.75448
C          1.75314       -1.04931       -1.54417
H          2.77086       -0.73766       -1.28526
H          1.65682       -2.13412       -1.58996
H          1.43274       -0.58598       -2.47729
H         -4.40956       -0.16478       -0.67697
H         -4.97120        0.28520        0.93433
H         -3.81847        2.19348        0.18717
H         -2.67543        1.38493        1.27991
H         -2.60151        1.36739       -1.65496
H         -1.45411        1.92279       -0.61782
H         -3.99471       -1.86261        1.09341
H         -2.54832       -1.34262        0.51973
C         -4.07255        0.05146        0.35395
C         -3.19792        1.30014        0.32381
N         -3.39058       -1.05416        1.00917
N         -2.17748        1.21590       -0.74331
N          3.95539        0.91436       -0.04946
H          4.67965        1.55970       -0.34468
C          4.25328        0.36797        1.27519
H          4.37183        1.12595        2.06361
H          3.44427       -0.30448        1.57163
H          5.17525       -0.21920        1.22602
H          3.07767        1.42746       -0.02838
