29
1msa1ma1tma_10.log	Energy: -586446.5685725
S         -1.60834       -0.44777       -0.02182
O         -1.04137       -0.28276        1.33766
O         -2.20109       -1.75794       -0.29856
O         -0.57145       -0.04709       -1.05312
C         -2.89983        0.77517       -0.19758
H         -3.66724        0.55809        0.54602
H         -2.46942        1.76272       -0.02772
H         -3.31064        0.69723       -1.20443
N          1.08660        2.39684       -0.65418
H          1.36700        3.15946       -1.26150
C          0.39256        2.91195        0.52869
H         -0.44361        3.58949        0.30106
H         -0.00645        2.06820        1.10006
H          1.09705        3.45303        1.16884
H          0.44506        1.80063       -1.17481
N          1.74785       -0.78180       -0.00413
C          2.76173       -0.56755       -1.05966
H          2.41004       -1.03382       -1.98095
H          2.86841        0.50833       -1.20493
H          3.71002       -1.01446       -0.75064
C          2.10611       -0.09369        1.25913
H          2.29739        0.95366        1.02477
H          1.25286       -0.17347        1.93353
H          2.99446       -0.56866        1.68398
C          1.45530       -2.21925        0.21711
H          0.67652       -2.29618        0.97633
H          1.08475       -2.64874       -0.71408
H          2.36680       -2.72743        0.54086
H          0.83541       -0.36645       -0.37317
