33
1msa2eda_13.log	Energy: -655920.0048939
S          2.22725       -0.21373        0.02096
O          1.23674       -0.43615        1.12858
O          2.44646        1.21062       -0.26894
O          1.87612       -1.03588       -1.17170
H          0.03130       -1.50353       -1.13804
C          3.77472       -0.86802        0.62937
H          4.04920       -0.31292        1.52666
H          3.63814       -1.92582        0.85455
H          4.52519       -0.73385       -0.15018
H          0.36826        2.10427       -0.72778
H         -0.76963        3.33477       -1.30114
H         -0.69537        3.37460        1.08252
H         -2.30383        2.86648        0.55704
H         -0.24153        0.94315        1.42151
H         -1.45101        1.50301        2.36555
H         -2.39380        1.44368       -1.52706
H         -1.07811        1.29872       -2.49243
C         -0.69354        2.36757       -0.78534
C         -1.25351        2.54782        0.61929
N         -1.38691        1.29769       -1.52472
N         -1.19658        1.31102        1.40181
H         -2.36332       -2.20352       -1.52555
H         -1.46249       -3.23350       -0.38535
H         -3.70466       -2.63716        0.47718
H         -2.41599       -2.03925        1.52657
H         -4.31092       -0.45736        0.85310
H         -2.77717        0.12866        0.72215
H         -1.08979       -0.29013       -0.87321
H         -0.32706       -1.11963        0.37343
C         -1.88453       -2.23751       -0.54390
C         -2.89684       -1.90179        0.54355
N         -0.78042       -1.25768       -0.54770
N         -3.43836       -0.56219        0.34828
