26
1msa1ma1dma_22.log	Energy: -561779.9316610
S         -0.32381       -0.84038        0.18802
O         -0.90870       -0.65917        1.51814
O          0.96695       -1.61145        0.19315
O         -0.12157        0.45697       -0.55586
H          1.56777        0.83699       -0.49193
C         -1.46949       -1.78598       -0.79298
H         -1.64931       -2.72912       -0.27637
H         -2.38472       -1.19417       -0.88488
H         -1.02163       -1.95954       -1.77164
N          2.49784        0.50087       -0.13889
C          2.76318        1.12058        1.17559
C          3.56908        0.64847       -1.13719
H          2.21474       -0.50665        0.00834
H          2.91128        2.19419        1.04902
H          1.90004        0.93647        1.81679
H          3.65379        0.66975        1.61600
H          3.74783        1.70786       -1.32920
H          4.48268        0.18464       -0.76162
H          3.25975        0.15465       -2.05847
N         -3.13895        1.13881       -0.91178
H         -2.13435        1.25000       -1.02961
C         -3.51512        1.45406        0.46592
H         -3.33436        2.49991        0.75955
H         -4.57809        1.23943        0.61481
H         -2.94258        0.81254        1.14074
H         -3.60341        1.75784       -1.56673
