25
1msa1a1eda_38.log	Energy: -571857.9483433
S          1.59491       -0.32808       -0.11619
O          2.99253       -0.12391       -0.46335
O          0.61696       -0.22845       -1.21255
O          1.15934        0.61944        1.05164
H          0.82565        1.59711        0.71213
C          1.40192       -1.91012        0.66803
H          0.34064       -2.05059        0.88872
H          1.75389       -2.65726       -0.04478
H          2.01681       -1.92146        1.56793
H         -3.75518       -0.85845       -0.55674
H         -3.46357       -1.27342        1.13885
H         -3.23378        1.09299        0.93817
H         -1.61393        0.43289        1.19156
H         -1.18776        0.70839       -1.14109
H         -2.70085        1.31502       -1.39345
H         -2.26676       -2.75054       -0.36933
H         -1.33574       -1.50402       -0.88022
C         -2.97618       -0.91675        0.22396
C         -2.44187        0.49318        0.47593
N         -1.89590       -1.84532       -0.10238
N         -1.96101        1.21218       -0.70620
N          0.25403        2.85790        0.26515
H         -0.66995        2.58555       -0.11049
H          0.80064        3.27032       -0.48514
H          0.13749        3.55494        0.99345
