20
1msa1a1ma_06.log	Energy: -512465.5170115
S         -1.10954        0.03904        0.00003
O         -1.07764        1.50767        0.00042
O         -0.51014       -0.57732        1.22844
O         -0.51023       -0.57673       -1.22872
C         -2.82814       -0.43911       -0.00008
H         -3.29051       -0.02500        0.89611
H         -3.29028       -0.02498       -0.89638
H         -2.88954       -1.52731       -0.00011
N          1.64415       -1.55056       -0.00009
H          1.01588       -1.26159        0.79185
H          1.74189       -2.56292       -0.00039
C          2.94444       -0.83882        0.00010
H          3.50490       -1.11725       -0.89307
H          2.73686        0.23928        0.00030
H          3.50484       -1.11761        0.89319
H          1.01593       -1.26118       -0.79187
N          1.88559        2.27453       -0.00007
H          2.10353        2.83776       -0.81595
H          2.10411        2.83809        0.81543
H          0.87325        2.12891        0.00031
