26
1msa1ma1dma_23.log	Energy: -561780.1067845
S         -0.80209       -1.10676        0.04484
O         -0.59084       -2.53201       -0.22105
O         -0.37978       -0.22273       -1.10123
O         -0.14059       -0.62774        1.30668
H          1.40047       -0.04788        0.82230
C         -2.54629       -0.82651        0.26562
H         -3.05355       -1.18857       -0.62925
H         -2.86337       -1.39326        1.14139
H         -2.71258        0.24481        0.39631
N          2.02522        0.16594        0.00208
C          2.80434       -1.04991       -0.32401
C          2.81438        1.39467        0.18841
H          1.27059        0.27176       -0.71724
H          3.51318       -1.25107        0.48044
H          2.10367       -1.88137       -0.42223
H          3.33614       -0.89629       -1.26415
H          3.53230        1.24659        0.99673
H          3.34578        1.62990       -0.73526
H          2.13684        2.21017        0.44207
N         -1.81966        2.40385       -0.56842
H         -1.44646        1.64582       -1.13540
C         -0.82072        2.84294        0.39536
H          0.09202        3.27682       -0.05151
H         -1.24989        3.59725        1.06201
H         -0.52992        1.98727        1.01391
H         -2.10126        3.16045       -1.18070
