28
1msa1ma1eda_92.log	Energy: -596517.2646050
S          1.76211       -0.55187       -0.08566
O          1.25027       -0.29475        1.29429
O          2.27879        0.64335       -0.76603
O          0.73846       -1.30235       -0.88947
C          3.13854       -1.67431        0.09577
H          3.89822       -1.17863        0.70066
H          2.78590       -2.58219        0.58511
H          3.52570       -1.89589       -0.89898
H         -2.63549        0.70986        1.21684
H         -1.55880        1.06108       -0.16634
H         -3.91437        0.63399       -0.93367
H         -2.80761       -0.59628       -1.54561
H         -4.71805       -0.95956        0.64163
H         -4.47154       -1.90076       -0.67121
H         -0.61364       -0.59736        1.38030
H         -1.93389       -1.62424        0.99946
C         -2.19604        0.29716        0.30317
C         -3.27958       -0.21043       -0.63628
N         -1.34093       -0.85120        0.68945
N         -4.00748       -1.30847        0.00688
H         -0.71871       -1.15813       -0.11019
N         -0.07726        2.54976       -0.69244
H          0.72090        2.00958       -1.02706
C          0.23508        3.07290        0.63808
H          1.05836        3.80069        0.65607
H         -0.65209        3.55096        1.06922
H          0.52333        2.23635        1.28127
H         -0.23026        3.30780       -1.34885
