33
1msa2eda_70.log	Energy: -655914.4209256
S          2.35204       -0.26258       -0.04150
O          2.56942        1.18244       -0.24273
O          1.52398       -0.89304       -1.10109
O          1.82327       -0.56744        1.33071
H          0.38723        0.27626        1.56343
C          3.95128       -1.05502       -0.11200
H          4.37570       -0.86779       -1.09865
H          4.58076       -0.62277        0.66608
H          3.81321       -2.12385        0.05170
H         -1.11655        2.73276        1.16635
H          0.62485        2.40096        0.98187
H         -0.06435        2.89519       -1.19060
H          0.04396        1.14545       -1.16354
H         -2.41820        2.73431       -1.10349
H         -2.00227        1.54678       -2.13198
H         -1.12312        0.73932        2.20717
H         -1.00089       -0.02964        0.73110
C         -0.37873        2.04875        0.73695
C         -0.52985        1.99175       -0.77647
N         -0.55307        0.70852        1.36689
N         -1.93931        1.84002       -1.16260
H         -3.64975       -2.20105        0.91194
H         -4.56149       -1.52808       -0.44183
H         -2.58846       -2.65104       -1.27014
H         -2.49685       -0.92072       -1.61000
H         -1.02693       -2.26055        0.54311
H         -0.37398       -1.49277       -0.74331
H         -3.26363        0.60093        0.12352
H         -4.39866        0.14415        1.23568
C         -3.63478       -1.41715        0.14311
C         -2.46335       -1.66251       -0.80513
N         -3.51876       -0.11641        0.80501
N         -1.18517       -1.50742       -0.12050
