28
1msa1ma1eda_173.log	Energy: -596506.6207072
S         -0.81115       -1.16772        0.30076
O         -1.24992       -0.58289        1.55602
O          0.06903       -2.33888        0.33937
O         -0.09740       -0.06326       -0.58245
H          0.94373       -0.34459       -0.74621
C         -2.24754       -1.53899       -0.67802
H         -2.84989       -2.24175       -0.10106
H         -2.78058       -0.59799       -0.84971
H         -1.92018       -1.98738       -1.61598
H          3.26158        1.64498       -1.11805
H          4.11746        1.77427        0.41959
H          4.27782       -0.50646       -0.11732
H          2.96903       -0.43339        1.08098
H          2.65095       -0.71887       -1.82580
H          2.19581       -1.77534       -0.64820
H          2.04810        2.93278        0.61618
H          1.17875        1.57252        0.30763
C          3.21162        1.37343       -0.04686
C          3.25907       -0.14629        0.06690
N          2.06466        1.92128        0.66096
N          2.31055       -0.78683       -0.87016
N         -2.63847        1.74997       -0.98084
H         -1.65267        1.56162       -1.13839
C         -2.84305        2.28659        0.36574
H         -2.34095        3.24741        0.55392
H         -3.91400        2.42393        0.54137
H         -2.47478        1.56075        1.09497
H         -2.94332        2.41182       -1.68588
