28
1msa1ma1eda_42.log	Energy: -596522.6561325
S         -1.91955       -0.15470       -0.00837
O         -1.39510       -1.10638       -1.00739
O         -2.32587        1.15594       -0.54606
O         -0.96844        0.00605        1.15667
H          0.09000        1.11008        0.88486
C         -3.37178       -0.90944        0.70581
H         -4.09769       -1.05601       -0.09450
H         -3.08397       -1.86519        1.14382
H         -3.76857       -0.23704        1.46649
H          4.03952       -1.52673        0.12205
H          3.33298       -1.10994        1.69067
H          1.86953       -2.61318        0.32704
H          1.07228       -1.11028        0.77085
H          2.03610       -1.80206       -1.87998
H          0.59332       -1.18495       -1.39292
H          4.21225        0.83710        0.54722
H          3.19219        0.55036       -0.70958
C          3.22407       -0.97137        0.61035
C          1.87500       -1.52685        0.15495
N          3.30015        0.46618        0.30089
N          1.60199       -1.15263       -1.23227
N          0.83666        1.83791        0.61928
H          0.74796        2.62834        1.25285
C          0.64561        2.24213       -0.79656
H          1.34145        3.04460       -1.04716
H          0.84783        1.36337       -1.41186
H         -0.39025        2.54535       -0.94551
H          1.78406        1.38949        0.72133
