33
1msa2eda_19.log	Energy: -655917.7813078
S         -0.36697        1.69920       -0.13375
O         -1.33116        1.08482       -1.08102
O          0.87216        2.19513       -0.74194
O         -0.10405        0.75587        1.01624
C         -1.19404        3.10118        0.60279
H         -1.42166        3.81149       -0.19257
H         -2.10886        2.75421        1.08362
H         -0.51928        3.54821        1.33311
H         -1.77182       -3.36867        0.07501
H         -1.24625       -2.64411        1.61899
H         -3.68572       -2.21191        1.06176
H         -2.73970       -0.73713        1.30133
H         -4.23205       -1.20597       -0.88741
H         -2.87332       -0.26823       -0.93922
H          0.36239       -2.16466       -0.22604
H         -0.92383       -1.38412       -1.01732
C         -1.60798       -2.43041        0.61032
C         -2.88960       -1.59632        0.63301
N         -0.56081       -1.66729       -0.10135
N         -3.23398       -1.19824       -0.72729
H         -0.35657       -0.76308        0.40558
H          2.95266       -1.15148       -1.94331
H          1.55594       -0.42324       -1.16993
H          4.37643       -0.55636       -0.03826
H          3.44079        0.87749       -0.52885
H          3.45448        0.32105        1.92570
H          1.93533        0.38817        1.29817
H          2.69324       -3.03517       -0.72835
H          2.38784       -2.18629        0.64988
C          2.47692       -0.98545       -0.97275
C          3.36953       -0.12195       -0.07954
N          2.14284       -2.27848       -0.33926
N          2.81865       -0.12400        1.27488
