28
1msa1ma1eda_19.log	Energy: -596521.0211835
S         -1.66074       -0.15269        0.05161
O         -0.86965       -0.65730       -1.10668
O         -2.24020        1.18032       -0.15463
O         -0.84710       -0.25395        1.31331
C         -3.01630       -1.29422        0.27349
H         -3.62504       -1.27020       -0.63084
H         -2.60733       -2.29121        0.43801
H         -3.59709       -0.96764        1.13637
H          3.48217       -0.61666       -0.08178
H          2.88926       -0.66949        1.60155
H          2.89085       -2.92558        0.49314
H          1.27949       -2.42901        1.02719
H          1.74692       -3.27766       -1.43581
H          0.66756       -2.05506       -1.19575
H          1.82139        1.18552        0.31528
H          1.22900        0.01572       -0.74020
C          2.61469       -0.81116        0.55325
C          2.07812       -2.21895        0.30078
N          1.56251        0.17219        0.21869
N          1.64270       -2.33475       -1.08535
H          0.69097        0.01735        0.80132
N          1.57055        2.99559        0.33391
H          1.16736        3.24720        1.23205
C          0.56836        3.19239       -0.73118
H          0.25878        4.23748       -0.84600
H          0.98639        2.85029       -1.68194
H         -0.32009        2.59167       -0.51534
H          2.36740        3.60836        0.19211
