25
1msa1a1eda_01.log	Energy: -571867.5841133
S          1.51126       -0.44602       -0.04713
O          1.73716        0.90984       -0.60701
O          0.92783       -1.40020       -1.00533
O          0.72841       -0.37995        1.23634
C          3.11428       -1.07441        0.42560
H          3.72681       -1.13683       -0.47425
H          3.55498       -0.38521        1.14602
H          2.97722       -2.06138        0.86769
H         -2.68526        0.91787       -1.16940
H         -1.02685        0.28777       -1.36709
H         -2.67955       -1.57814       -1.42968
H         -1.56166       -1.70743       -0.07515
H         -4.38571       -0.94807        0.07495
H         -3.53739       -1.96241        1.03467
H         -1.19143        1.88923        0.45009
H         -2.30850        0.80631        1.22409
C         -1.90667        0.29319       -0.72059
C         -2.39877       -1.12550       -0.47087
N         -1.52262        0.89848        0.57776
N         -3.48386       -1.09513        0.51479
H         -0.68421        0.37072        0.96436
N         -0.02624        3.18909       -0.02318
H         -0.19168        3.77618       -0.83425
H          0.72834        2.53187       -0.26011
H          0.31352        3.79161        0.71970
