28
1msa1ma1eda_113.log	Energy: -596512.7750032
S         -0.64342       -1.03975       -0.15175
O          0.31733       -2.13139       -0.39999
O         -0.76686       -0.06777       -1.25648
O         -0.32148       -0.33997        1.15849
H          1.10785       -0.12733        1.31465
C         -2.25240       -1.75511        0.11127
H         -2.96159       -0.93926        0.27416
H         -2.51086       -2.31046       -0.79127
H         -2.19457       -2.42326        0.97056
H          3.96803       -0.46830        0.36603
H          2.50186       -1.39392       -0.11047
H          3.16424        0.34667       -1.83017
H          1.53201        0.54873       -1.19475
H          3.83074        2.24858       -0.62524
H          2.25541        2.64570       -0.82881
H          2.54403       -0.42635        2.23034
H          2.36883        1.05576        1.46267
C          2.89485       -0.41180        0.15964
C          2.59290        0.61264       -0.93342
N          2.20204        0.04278        1.39615
N          2.88026        1.95823       -0.42621
N         -3.33170        1.41025       -0.38401
H         -2.60174        1.09057       -1.01737
C         -2.74131        2.22218        0.67657
H         -2.25749        3.14900        0.32841
H         -3.51209        2.49658        1.40403
H         -1.98651        1.62442        1.19512
H         -4.00377        1.94564       -0.92187
