28
1msa1ma1eda_23.log	Energy: -596523.3544482
S          1.66387       -0.18649        0.04819
O          1.94813        1.21363        0.43125
O          0.86399       -0.30326       -1.19748
O          1.04497       -0.97729        1.15919
C          3.24068       -0.96107       -0.26332
H          3.72069       -0.43097       -1.08624
H          3.83922       -0.88770        0.64475
H          3.06270       -2.00413       -0.52525
H         -2.89066       -1.68358        1.32958
H         -3.55318       -0.04749        1.05541
H         -3.58448       -1.28613       -1.01417
H         -2.40218        0.01485       -1.16209
H         -1.83253       -2.45413       -1.82620
H         -0.68190       -1.56137       -1.07571
H         -1.55793       -0.01876        2.40563
H         -0.60365       -0.66711        1.22299
C         -2.72333       -0.72546        0.83264
C         -2.60050       -0.95050       -0.67037
N         -1.49085       -0.11838        1.39449
N         -1.61051       -1.97204       -0.96423
H         -1.29933        0.86467        0.98761
N         -0.76754        2.34441        0.34482
H         -1.04593        3.19136        0.83087
C         -1.01321        2.47341       -1.09909
H         -0.55328        3.36908       -1.53251
H         -0.58630        1.59703       -1.59336
H         -2.09016        2.50828       -1.29213
H          0.24078        2.21920        0.49138
