32
1msa1dma1tma_22.log	Energy: -611100.7261623
S         -0.07875        1.68382       -0.03066
O          0.62026        2.96249       -0.15551
O          0.01019        1.03562        1.30146
O          0.34723        0.68123       -1.09638
H          1.22908       -0.29686       -0.47269
C         -1.80709        1.96971       -0.36747
H         -2.17342        2.66878        0.38544
H         -1.88523        2.41103       -1.36163
H         -2.35123        1.02254       -0.31757
N         -3.01953       -1.32680       -0.12624
C         -2.48305       -1.42006        1.22280
C         -2.08422       -1.77713       -1.14328
H         -3.88398       -1.85136       -0.19324
H         -1.66028       -0.70642        1.33996
H         -3.25728       -1.15214        1.94642
H         -2.10751       -2.43025        1.47438
H         -1.23243       -1.08880       -1.18258
H         -1.70308       -2.80208       -0.96544
H         -2.56736       -1.75880       -2.12389
N          1.94828       -1.00301       -0.02610
C          2.52225       -1.78049       -1.14156
H          1.71736       -2.31632       -1.64701
H          2.99058       -1.09180       -1.84574
H          3.26235       -2.49072       -0.76265
C          2.96177       -0.16630        0.65840
H          3.40795        0.50923       -0.07260
H          2.45125        0.42349        1.42087
H          3.72762       -0.80756        1.10332
C          1.20778       -1.85269        0.93228
H          0.73784       -1.19497        1.66381
H          0.43285       -2.39934        0.39258
H          1.89763       -2.55304        1.41165
