28
1msa1ma1eda_35.log	Energy: -596521.9060641
S          1.57520        0.54757       -0.02250
O          2.15284       -0.70611        0.50543
O          0.71254        1.26684        0.94197
O          0.85257        0.33175       -1.32483
C          2.94951        1.61748       -0.41528
H          2.55630        2.54323       -0.83558
H          3.49349        1.81307        0.50918
H          3.58615        1.10388       -1.13574
H         -2.55299       -2.38738       -0.17512
H         -1.81401       -2.05284       -1.76293
H         -0.60567       -3.87643       -0.43736
H          0.42567       -2.51101       -0.88758
H         -0.14322       -3.35478        1.72801
H          0.78142       -2.06542        1.23545
H         -2.25155        0.04244       -0.39124
H         -1.15570       -0.62343        0.71106
C         -1.65806       -2.01659       -0.68222
C         -0.41743       -2.81318       -0.25648
N         -1.44368       -0.61215       -0.27725
N         -0.12166       -2.53080        1.14400
H         -0.61772       -0.20021       -0.79695
N         -3.10461        1.68163       -0.40427
H         -2.76095        2.15234       -1.23670
C         -2.53225        2.31229        0.79899
H         -2.75054        3.38401        0.87607
H         -2.93631        1.81536        1.68502
H         -1.44712        2.17007        0.80110
H         -4.11508        1.77527       -0.41453
