23
1msa2ma_27.log	Energy: -537114.5716504
S         -1.23191       -0.25736        0.06142
O         -0.63861       -0.32477        1.39168
O         -0.54161       -0.96626       -1.01682
O         -1.44789        1.24367       -0.36254
H         -0.49358        1.65766       -0.58078
C         -2.91910       -0.80672        0.14055
H         -2.89234       -1.85816        0.42875
H         -3.43940       -0.21382        0.89220
H         -3.37052       -0.68568       -0.84347
N          2.26363       -2.25119       -0.35928
H          2.89731       -2.43415       -1.12821
C          2.71114       -1.12842        0.44881
H          2.90062       -0.19233       -0.10991
H          1.95271       -0.91552        1.20686
H          3.64012       -1.38639        0.96744
H          1.33957       -2.06852       -0.73894
N          0.96104        2.04940       -0.77489
H          1.38969        1.20928       -1.16002
C          1.55314        2.37424        0.53402
H          2.64003        2.49597        0.49001
H          1.10382        3.29731        0.90549
H          1.30867        1.57239        1.23352
H          1.11502        2.79648       -1.44521
