33
1msa2eda_72.log	Energy: -655913.6612501
S         -2.37985       -0.01705       -0.07299
O         -1.43673       -0.29346       -1.19972
O         -2.34037        1.38438        0.38545
O         -2.17721       -0.99799        1.03748
C         -4.01906       -0.31025       -0.71107
H         -4.19009        0.39082       -1.52823
H         -4.07431       -1.33939       -1.06580
H         -4.73151       -0.13992        0.09635
H          1.69395       -2.58830        1.54287
H          0.54268       -3.28981        0.37874
H          2.78582       -3.51779       -0.48488
H          1.89301       -2.38622       -1.50181
H          4.25951       -1.78970       -0.68849
H          3.15420       -0.59623       -0.49677
H         -0.40228       -1.28027        1.06441
H          0.96331       -0.35347        0.84110
C          1.25846       -2.48114        0.54732
C          2.35361       -2.51257       -0.50765
N          0.48441       -1.21965        0.51699
N          3.39960       -1.54655       -0.21142
H          0.08938       -0.99726       -0.41911
H          2.52291        3.47014        0.28655
H          2.46396        2.98869       -1.41160
H          0.21708        3.11589       -0.40190
H          0.56819        1.50080       -1.00637
H          0.89851        2.23907        1.81443
H         -0.41883        1.52888        1.17484
H          4.15664        1.74242       -0.34569
H          3.14809        1.20590        0.81535
C          2.30487        2.62700       -0.39117
C          0.84507        2.23024       -0.23843
N          3.19247        1.48504       -0.16082
N          0.59698        1.61050        1.07299
