32
1msa1dma1tma_09.log	Energy: -611100.6425831
S          2.74110       -0.20594        0.20254
O          2.93803       -0.37670        1.64543
O          2.08907        1.11966       -0.14169
O          2.02005       -1.31123       -0.47004
C          4.35925       -0.10011       -0.54799
H          4.88989        0.73772       -0.09545
H          4.87974       -1.03722       -0.34831
H          4.23590        0.05169       -1.62025
N         -4.09682       -0.15905       -0.27678
C         -4.69835        0.48861        0.88156
C         -4.14274       -1.61352       -0.19184
H         -4.57975        0.14182       -1.11686
H         -4.10612        0.25917        1.77454
H         -4.69115        1.57376        0.74559
H         -5.73492        0.16908        1.07739
H         -3.53234       -1.94854        0.65397
H         -5.15914       -2.01512       -0.04889
H         -3.72001       -2.05254       -1.09956
N         -0.45520        0.65799       -0.29447
C         -1.18575        1.94127       -0.24832
H         -0.92248        2.46210        0.67328
H         -0.88431        2.54957       -1.10239
H         -2.25858        1.73692       -0.28277
C         -0.72070       -0.09065       -1.54509
H         -0.47071        0.55019       -2.39225
H         -0.06842       -0.96504       -1.55062
H         -1.77820       -0.36290       -1.57116
C         -0.73188       -0.17288        0.90299
H         -0.16255       -1.09866        0.81378
H         -0.38945        0.36690        1.78692
H         -1.80530       -0.36468        0.95184
H          0.60829        0.87818       -0.26824
