26
1msa1ma1dma_35.log	Energy: -561776.0108338
S         -0.73498       -1.27479       -0.03969
O         -0.58543       -2.71555        0.09588
O         -0.37893       -0.67122       -1.33139
O          0.07500       -0.52930        1.08709
H          0.95882       -0.08870        0.64652
C         -2.40391       -0.82999        0.37146
H         -3.04909       -1.35505       -0.33453
H         -2.59918       -1.17281        1.38795
H         -2.52000        0.25516        0.28061
N          2.11076        0.40927       -0.11322
C          3.07385       -0.68974       -0.23805
C          2.70567        1.65539        0.36797
H          1.66065        0.55396       -1.01596
H          3.47092       -0.92971        0.75169
H          2.56049       -1.57057       -0.62908
H          3.90855       -0.43269       -0.90244
H          3.08635        1.50232        1.38133
H          3.53403        1.99268       -0.26871
H          1.94184        2.43507        0.40002
N         -2.37009        2.53264       -0.09566
H         -2.74949        2.77329       -1.00470
C         -0.90913        2.57986       -0.11092
H         -0.48299        3.56902       -0.33784
H         -0.53366        2.25391        0.86356
H         -0.54579        1.86086       -0.85074
H         -2.75043        3.19190        0.57420
