33
1msa2eda_02.log	Energy: -655921.7563921
S         -1.69081       -0.89652       -0.07691
O         -1.95615        0.15593        0.93108
O         -0.75507       -1.93913        0.40463
O         -1.27028       -0.31791       -1.39259
H          0.08659        0.67290       -1.11872
C         -3.24819       -1.71010       -0.39470
H         -3.59381       -2.15252        0.53982
H         -3.95719       -0.96377       -0.75344
H         -3.08364       -2.48036       -1.14849
H          3.57322       -0.72722        1.34087
H          2.61164       -2.11796        1.84525
H          3.13017       -2.67530       -0.32505
H          1.49850       -2.00377       -0.48012
H          3.98342       -0.54969       -1.10130
H          2.91138       -1.13265       -2.17571
H          0.64286       -0.82917        1.50226
H          1.64870        0.10678        2.41041
C          2.61610       -1.24090        1.18243
C          2.54033       -1.75039       -0.25734
N          1.52615       -0.31341        1.49564
N          2.99561       -0.74614       -1.23974
H          1.62541        3.15133       -0.47708
H          0.66048        2.91575       -1.95963
H         -0.58839        4.18175       -0.21871
H         -1.39048        2.65991       -0.63189
H         -0.84605        3.38036        1.86783
H         -0.91235        1.81295        1.39765
H          1.75954        0.80881       -1.23670
H          1.07591        0.88804        0.22159
C          0.74225        2.66408       -0.89821
C         -0.50969        3.09292       -0.13677
N          0.92337        1.20511       -0.77455
N         -0.41309        2.69351        1.26354
