28
1msa1ma1eda_141.log	Energy: -596509.1915639
S         -0.75549       -0.83606        0.17595
O          0.23371       -1.41001       -0.72733
O         -2.07831       -1.46136        0.22991
O         -0.94590        0.69823       -0.15151
H         -1.91104        0.86243       -0.55035
C         -0.04935       -0.76447        1.80127
H          0.19167       -1.79003        2.08466
H          0.84922       -0.13921        1.73136
H         -0.78781       -0.33811        2.48029
H          4.00700        1.93236       -0.24264
H          4.13045        1.17960        1.36447
H          4.80815       -0.34571       -0.44166
H          3.42165       -0.97484        0.46205
H          3.45233       -0.88176       -2.16010
H          2.06253       -0.58394       -1.36499
H          2.04193        2.31551        1.17007
H          1.63125        1.45403       -0.14747
C          3.57255        1.16842        0.42057
C          3.74136       -0.19282       -0.24472
N          2.16111        1.41382        0.72051
N          3.01035       -0.24400       -1.50972
N         -3.35346        0.96670       -1.03577
H         -3.53312        1.68682       -1.72863
C         -4.23668        1.11043        0.13113
H         -5.29979        1.05518       -0.12543
H         -3.99901        0.31079        0.83506
H         -4.03829        2.06994        0.61352
H         -3.50878        0.06415       -1.47861
