33
1msa2eda_96.log	Energy: -655911.6253145
S          1.00396       -1.45918       -0.15190
O          0.20701       -1.44926       -1.38972
O          0.31056       -0.90084        1.03180
O          2.35050       -0.79852       -0.31955
H          2.28590        0.49551        0.52731
C          1.36620       -3.16899        0.20936
H          0.41693       -3.68439        0.35836
H          1.90294       -3.59112       -0.64034
H          1.97272       -3.21164        1.11401
H          2.24193        3.48606        0.48387
H          3.02088        2.36239       -0.66264
H          0.82322        3.26922       -1.54764
H          0.81573        1.51037       -1.37562
H         -0.64162        3.38853        0.27735
H         -1.03693        1.85139       -0.23442
H          2.72167        1.59172        1.77792
H          1.11063        1.41124        1.32355
C          2.14804        2.52389       -0.02718
C          0.83641        2.45183       -0.81564
N          2.09274        1.44788        0.99313
N         -0.27946        2.45549        0.11929
H         -2.54211       -1.51762        0.54650
H         -4.12378       -0.92987        1.04674
H         -3.87858       -0.65686       -1.33279
H         -4.00943        0.92702       -0.55806
H         -1.41772       -0.24564       -1.33685
H         -2.24311        0.86514       -2.20569
H         -1.48228        0.21326        1.52386
H         -2.83077        1.14319        1.70359
C         -3.13953       -0.60870        0.68097
C         -3.34832        0.05804       -0.68251
N         -2.48192        0.19012        1.70309
N         -2.08723        0.52385       -1.26249
