28
1msa1ma1eda_99.log	Energy: -596515.5204713
S         -1.39027        0.61467       -0.09308
O         -1.03117       -0.16867       -1.29587
O         -1.09684        2.05799       -0.20221
O         -0.76821        0.03683        1.15420
C         -3.14993        0.43080        0.13179
H         -3.64175        0.82850       -0.75621
H         -3.36915       -0.63031        0.25214
H         -3.44379        0.99016        1.01992
H          3.52951        1.37060        0.78097
H          2.86509       -0.00693        1.70166
H          3.44669       -0.52598       -0.75537
H          1.80421       -0.94246       -0.28768
H          2.55976        0.96520       -2.23984
H          1.03140        0.50776       -1.79018
H          1.55997        2.13979        1.86293
H          1.22486        1.94618        0.23285
C          2.69554        0.66744        0.85971
C          2.48482       -0.09837       -0.45395
N          1.46538        1.45841        1.11469
N          1.94202        0.81514       -1.45467
H          0.61160        0.83905        1.29632
N          0.40366       -2.76161       -0.50570
H         -0.18741       -2.02218       -0.88436
C         -0.16417       -3.26836        0.74105
H         -1.14785       -3.75154        0.63157
H          0.51961       -3.99572        1.19154
H         -0.28120       -2.43148        1.43425
H          0.45745       -3.49715       -1.20186
