28
1msa1ma1eda_29.log	Energy: -596522.3014735
S          1.73927        0.05739       -0.06118
O          1.44081        1.43601       -0.50251
O          1.11278       -0.98816       -0.90882
O          1.43501       -0.16138        1.39152
C          3.50542       -0.15625       -0.20691
H          3.77509       -0.00017       -1.25163
H          3.99118        0.58185        0.43144
H          3.75568       -1.16862        0.11038
H         -0.41135       -2.11204        0.50586
H         -1.74919       -2.48384        1.61142
H         -2.46650       -2.90590       -0.61144
H         -3.35428       -1.48656       -0.05135
H         -0.85840       -1.10837       -1.55986
H         -2.30977       -1.29100       -2.33166
H         -0.22014       -0.30271        1.65544
H         -1.45636        0.41043        0.75394
C         -1.40577       -1.79886        0.83261
C         -2.35901       -1.84079       -0.35369
N         -1.24041       -0.44236        1.43257
N         -1.87179       -1.02195       -1.45888
H         -1.80225       -0.32475        2.27106
N         -1.50818        1.67125       -0.21823
H         -0.51331        1.82521       -0.41409
C         -2.19642        2.92201        0.09320
H         -2.13997        3.66067       -0.71565
H         -3.25244        2.72446        0.30079
H         -1.75384        3.36784        0.98799
H         -1.89393        1.19828       -1.03478
