28
1msa1ma1eda_44.log	Energy: -596520.5538252
S          1.75856       -0.37825       -0.03002
O          1.22657       -1.51496       -0.79691
O          1.08509       -0.14193        1.26887
O          1.80980        0.89494       -0.83863
H          0.49774        1.70439       -0.63522
C          3.46903       -0.74682        0.33138
H          3.49508       -1.65917        0.92796
H          3.99108       -0.89253       -0.61449
H          3.89551        0.08983        0.88470
H         -2.73779       -1.67556       -1.48568
H         -1.05194       -1.10851       -1.44178
H         -1.59851       -2.33630        0.59855
H         -1.19327       -0.67071        0.95333
H         -3.90268       -1.80023        0.95094
H         -3.14306       -0.98375        2.14031
H         -2.80040        0.57877       -2.11581
H         -3.29915        0.54272       -0.55191
C         -2.04175       -0.97812       -0.99591
C         -1.95423       -1.30410        0.48847
N         -2.49002        0.41941       -1.16194
N         -3.24794       -1.04616        1.13436
N         -0.44156        2.19426       -0.44581
H         -0.49977        3.02167       -1.03457
C         -0.56341        2.53314        0.98966
H         -1.57526        2.88110        1.20364
H         -0.32969        1.63113        1.55632
H          0.16212        3.30568        1.24580
H         -1.21988        1.52203       -0.73641
