26
1msa1ma1dma_62.log	Energy: -561775.7195815
S         -1.40088       -0.70333        0.09375
O         -2.81935       -1.01748        0.04920
O         -0.87274       -0.08238        1.31145
O         -1.00153        0.21119       -1.13766
H         -0.98189        1.21330       -0.83731
C         -0.47034       -2.16812       -0.28222
H         -0.71206       -2.89443        0.49526
H         -0.80245       -2.53404       -1.25422
H          0.60063       -1.93695       -0.28322
N          2.71400       -1.05578       -0.14761
C          2.59351       -0.50331        1.19497
C          2.54302       -0.05436       -1.18934
H          3.61360       -1.51054       -0.25381
H          1.56159       -0.17837        1.36306
H          2.81936       -1.27780        1.93267
H          3.26324        0.35632        1.37476
H          1.50991        0.30795       -1.17646
H          3.21619        0.81447       -1.07703
H          2.72023       -0.50701       -2.16867
N         -0.88030        2.65866       -0.26677
H         -1.06282        3.38690       -0.95050
C          0.44093        2.83013        0.35687
H          0.55848        3.79841        0.85505
H          0.57751        2.02991        1.08639
H          1.21271        2.73118       -0.40982
H         -1.60994        2.71715        0.43897
