32
1msa1dma1tma_19.log	Energy: -611099.8042593
S         -0.46870       -0.77377       -0.03021
O          0.11959       -0.96668        1.29885
O         -0.72761        0.67416       -0.35889
O         -1.72356       -1.56846       -0.25794
H         -3.05586       -0.49253       -0.19535
C          0.70965       -1.34723       -1.23443
H          1.64165       -0.78798       -1.08964
H          0.86689       -2.41174       -1.05610
H          0.29275       -1.18247       -2.22831
N         -3.33534        0.51120       -0.05040
C         -3.69765        0.70699        1.36738
C         -4.33213        0.97338       -1.02882
H         -2.37841        0.92556       -0.22369
H         -4.61582        0.16033        1.58893
H         -2.88160        0.32414        1.98165
H         -3.84161        1.77087        1.56247
H         -5.26791        0.43028       -0.88588
H         -4.50541        2.04255       -0.89470
H         -3.94839        0.78806       -2.03217
N          3.35517        0.39209       -0.11972
C          3.49661       -0.40213        1.09069
H          2.50836       -0.60898        1.51016
H          3.97779       -1.35601        0.85130
H          4.11109        0.11041        1.85668
C          4.63933        0.64013       -0.74569
H          5.13245       -0.30989       -0.97373
H          4.49788        1.18652       -1.68353
H          5.31722        1.23348       -0.10029
C          2.64916        1.63459        0.14931
H          2.49090        2.17848       -0.78705
H          1.67000        1.41934        0.58366
H          3.21127        2.29036        0.84300
