29
1msa2dma_10.log	Energy: -586442.0536010
S          1.66967       -0.30361       -0.07097
O          1.09178       -1.53203       -0.64005
O          1.36321       -0.06574        1.35284
O          1.32634        0.91901       -0.89749
H          0.16181        1.64604       -0.33957
C          3.44214       -0.45299       -0.22343
H          3.75149       -1.32594        0.35212
H          3.68390       -0.58450       -1.27814
H          3.90241        0.45224        0.17247
N         -1.84621       -1.15836       -0.09758
C         -2.91649       -1.70251       -0.91772
C         -1.79495       -1.76561        1.22682
H         -0.94595       -1.33449       -0.54472
H         -3.88806       -1.45633       -0.47258
H         -2.88063       -1.25949       -1.91820
H         -2.86836       -2.79924       -1.02901
H         -2.67672       -1.46798        1.80910
H         -1.76981       -2.86757        1.19366
H         -0.89433       -1.42194        1.74306
N         -0.68838        2.25783       -0.01843
C         -1.10013        1.87452        1.35440
C         -1.76754        2.10164       -1.02086
H         -0.34398        3.21659       -0.02013
H         -1.51941        0.87027        1.29211
H         -0.21667        1.85191        1.99126
H         -1.84543        2.58345        1.72234
H         -2.08913        1.05819       -0.97302
H         -2.59736        2.77073       -0.78250
H         -1.36514        2.32923       -2.00835
