25
1msa1a1eda_64.log	Energy: -571849.2529326
S          1.75854       -0.30268        0.14496
O          1.20468       -1.60333       -0.19384
O          1.29086        0.36442        1.35932
O          1.58356        0.68709       -1.07429
H          0.97254        1.48430       -0.80640
C          3.52852       -0.46152        0.20967
H          3.75752       -1.16230        1.01320
H          3.87108       -0.85361       -0.74790
H          3.96185        0.51736        0.41187
H         -3.94327        0.05436       -1.13504
H         -3.30734        1.43812       -0.26276
H         -1.45658        0.24946       -1.33193
H         -1.31388        0.07597        0.42667
H         -2.28034       -1.99296       -1.39047
H         -0.99516       -2.02972       -0.37662
H         -3.96392       -1.11931        0.98316
H         -3.56155        0.24845        1.76195
C         -3.33747        0.34023       -0.26490
C         -1.91995       -0.21317       -0.44164
N         -4.03274       -0.10587        0.93455
N         -1.93810       -1.66955       -0.49125
N          0.03040        2.61275       -0.22695
H         -0.92139        2.55999       -0.57715
H          0.34771        3.57306       -0.31023
H          0.01962        2.35966        0.75948
