28
1msa1ma1eda_127.log	Energy: -596512.8483942
S         -0.59935        0.84401       -0.23180
O         -0.66332        0.14594        1.07513
O         -0.55476       -0.05430       -1.39643
O          0.55473        1.82924       -0.23691
H          1.75377        1.26451        0.34789
C         -2.06095        1.85048       -0.37251
H         -2.92089        1.18028       -0.28566
H         -2.05529        2.57520        0.44183
H         -2.03534        2.35167       -1.34019
H          3.20670       -0.96930        1.79545
H          1.43864       -0.67248        1.65929
H          2.24701       -2.47940        0.07899
H          1.47180       -1.11795       -0.72974
H          4.31792       -1.74957       -0.75357
H          3.36573       -1.14821       -1.94212
H          2.95789        1.35413        1.58676
H          3.40120        0.78424        0.07179
C          2.39956       -0.62122        1.14353
C          2.35847       -1.41580       -0.16102
N          2.66277        0.79961        0.78790
N          3.55682       -1.10916       -0.94852
N         -3.55749       -0.94096        0.76337
H         -2.66926       -0.74140        1.21891
C         -3.37049       -1.95559       -0.27187
H         -3.02738       -2.93295        0.10275
H         -4.31250       -2.10954       -0.80788
H         -2.62876       -1.59444       -0.98947
H         -4.20920       -1.25973        1.47139
