28
1msa1ma1eda_31.log	Energy: -596521.5017749
S          1.47048       -0.82495       -0.01383
O          1.50091       -0.04795       -1.27238
O          0.17515       -1.50694        0.21840
O          1.88375        0.01902        1.15826
H          1.14089        1.46484        0.99458
C          2.70871       -2.10262       -0.13570
H          2.44487       -2.74599       -0.97532
H          3.67537       -1.62673       -0.30063
H          2.70883       -2.66649        0.79725
H         -3.77015       -0.47950       -1.32772
H         -4.68974       -0.37438        0.16704
H         -3.44354        1.70101       -0.13341
H         -2.79734        0.83241        1.26124
H         -1.04721       -0.01100       -0.21629
H         -1.57469        0.95893       -1.40740
H         -2.17444       -1.87950       -0.17436
H         -3.03290       -1.76879        1.20685
C         -3.67227       -0.45531       -0.23459
C         -2.88955        0.80360        0.16790
N         -3.10785       -1.72339        0.19615
N         -1.53609        0.87440       -0.39436
N          0.56926        2.30061        0.67191
H         -0.33865        1.86853        0.28090
C          1.29458        3.02185       -0.39770
H          0.65898        3.80738       -0.80890
H          2.21033        3.45492        0.00576
H          1.54274        2.28605       -1.16389
H          0.35427        2.89812        1.46591
