20
1msa1a1ma_20.log	Energy: -512450.2001724
S          1.37472       -0.28515       -0.00784
O          0.31422       -1.19532        0.37847
O          2.73387       -0.77652       -0.16816
O          1.43815        0.89498        1.11484
H          2.34103        0.91297        1.46318
C          0.85759        0.64358       -1.42417
H          0.66927       -0.08265       -2.21666
H         -0.05484        1.19515       -1.14830
H          1.66704        1.31852       -1.70233
N         -2.66508       -0.59013        0.75070
H         -1.73848       -0.90165        1.02988
C         -2.96056       -1.08751       -0.59171
H         -2.90274       -2.17989       -0.69574
H         -3.96245       -0.76458       -0.88994
H         -2.24854       -0.64593       -1.29509
H         -3.32975       -0.95282        1.42487
N         -1.63437        2.17643       -0.03986
H         -1.15647        2.64383        0.72418
H         -2.13146        1.37017        0.35626
H         -2.32394        2.82372       -0.40681
