28
1msa1ma1eda_138.log	Energy: -596512.3549653
S         -1.68932       -0.06659       -0.16420
O         -1.76605       -1.47720       -0.58782
O         -1.10838        0.85818       -1.14766
O         -0.97768        0.04353        1.17702
H          0.18896       -0.84389        1.26035
C         -3.34967        0.48576        0.18093
H         -3.90977        0.44502       -0.75369
H         -3.78810       -0.18026        0.92384
H         -3.29936        1.50829        0.55518
H          1.98305       -2.93057        0.00933
H          0.31747       -2.44161       -0.45780
H          2.03636       -1.41134       -1.96813
H          1.10169       -0.20455       -1.08564
H          3.87742       -0.96380       -0.55275
H          3.20323        0.52243       -0.63987
H          0.93304       -2.21795        1.98620
H          1.90834       -0.95228        1.48200
C          1.28238       -2.09500       -0.08233
C          1.85228       -0.99408       -0.97119
N          1.07080       -1.50917        1.27058
N          3.04388       -0.42990       -0.33033
N          1.32551        2.22266        0.98303
H          2.06639        1.57004        1.21513
C          1.53798        2.79481       -0.34048
H          1.52533        2.06981       -1.17132
H          0.74655        3.51767       -0.55091
H          2.49071        3.33516       -0.35808
H          0.44553        1.71316        1.01633
