33
1msa2eda_10.log	Energy: -655918.6843755
S          1.47936       -1.17914       -0.06549
O          2.75990       -0.44626       -0.03084
O          0.74558       -1.05933       -1.34428
O          0.58690       -0.81201        1.09295
C          1.86485       -2.90667        0.17064
H          2.52173       -3.21685       -0.64245
H          2.36539       -3.01757        1.13267
H          0.93357       -3.47344        0.14975
H         -0.30338        3.55047        0.07094
H         -0.28290        2.70825        1.64105
H          2.01283        3.55339        0.93450
H          1.95642        1.80404        1.18630
H          2.55383        3.11486       -1.23822
H          2.54586        1.49088       -0.89570
H         -1.51069        1.46341       -0.15465
H         -0.00248        1.36976       -0.95773
C          0.07726        2.67848        0.60983
C          1.60680        2.61573        0.53944
N         -0.46454        1.46716       -0.04302
N          2.01704        2.35906       -0.83627
H         -0.18802        0.60857        0.49370
H         -4.61145       -0.51230       -0.50187
H         -3.57133        0.00277       -1.84109
H         -2.86965       -2.17818       -0.80155
H         -1.59841       -0.97378       -0.81969
H         -2.95064       -1.99964        1.51130
H         -1.42296       -1.39235        1.33098
H         -3.98746        1.81288       -0.28356
H         -3.32183        0.91373        0.92441
C         -3.60184       -0.15782       -0.75854
C         -2.56600       -1.21564       -0.36785
N         -3.28805        1.10765       -0.07630
N         -2.40210       -1.26335        1.08488
