28
1msa1ma1eda_52.log	Energy: -596520.6951052
S         -1.94707       -0.32184       -0.12149
O         -1.13983       -1.33285       -0.86419
O         -2.10771        0.95134       -0.85198
O         -1.42305       -0.13471        1.26777
C         -3.57954       -1.02110        0.06107
H         -3.99901       -1.16546       -0.93486
H         -3.48883       -1.97327        0.58379
H         -4.18573       -0.32056        0.63582
H          2.80008       -0.40803        1.71024
H          2.20195       -2.05305        1.44908
H          4.30395       -1.80228        0.25874
H          2.99737       -1.96600       -0.91492
H          4.35765        0.54040       -0.24957
H          4.13986       -0.14877       -1.71894
H          0.40106       -0.43332        1.15744
H          1.22161        0.43493       -0.00060
C          2.41038       -1.09945        0.95675
C          3.42448       -1.29333       -0.16331
N          1.14915       -0.54176        0.44607
N          3.72118       -0.01962       -0.80621
H          0.66655       -1.12894       -0.25659
N          0.68719        1.98887       -0.51457
H          1.29021        2.46580       -1.17575
C          0.42098        2.81625        0.66676
H         -0.03340        3.78596        0.43038
H         -0.26695        2.26864        1.31646
H          1.35419        2.99419        1.21115
H         -0.20305        1.78226       -0.97557
