23
1msa1a1dma_28.log	Energy: -537110.6028689
S          1.54301       -0.09583       -0.01003
O          1.57749        0.83997       -1.12740
O          1.09159        0.35582        1.29126
O          3.06097       -0.66383        0.15675
H          3.63954       -0.11946       -0.39622
C          0.67961       -1.57236       -0.45438
H         -0.38421       -1.28264       -0.52819
H          1.07633       -1.92929       -1.40456
H          0.83361       -2.30302        0.34027
N         -2.23935       -0.32098       -0.14957
C         -2.39876       -0.61243        1.26606
C         -3.43756       -0.60024       -0.92112
H         -1.97336        0.66224       -0.24902
H         -2.55130       -1.68919        1.41097
H         -1.48843       -0.32348        1.79954
H         -3.25502       -0.09027        1.72733
H         -3.64759       -1.67653       -0.90693
H         -4.33503       -0.08100       -0.54107
H         -3.28379       -0.30275       -1.96215
N         -0.93503        2.46379       -0.01748
H         -1.31863        3.40214       -0.00019
H         -0.21646        2.42473       -0.73506
H         -0.46328        2.29658        0.86686
