25
1msa1a1eda_21.log	Energy: -571863.6897500
S          1.54145       -0.26731        0.02954
O          0.76108       -1.51584        0.05987
O          1.28341        0.62392        1.20244
O          1.40335        0.49300       -1.25177
H          0.46649        1.96694       -0.94458
C          3.26031       -0.73764        0.13597
H          3.40570       -1.27092        1.07564
H          3.48695       -1.38361       -0.71251
H          3.86909        0.16623        0.10708
H         -1.21692        0.14291        1.09096
H         -2.81768        0.51802        1.72958
H         -2.47635       -1.91937        1.21527
H         -3.82437       -1.22861        0.28957
H         -1.11436       -1.66526       -0.75333
H         -2.51158       -2.36638       -1.27842
H         -2.36546        0.64431       -1.11740
H         -3.40889        1.54534       -0.23710
C         -2.28133        0.18654        0.83562
C         -2.73364       -1.21306        0.41219
N         -2.46235        1.17729       -0.24636
N         -2.11914       -1.52503       -0.87415
N         -0.06581        2.50291       -0.22203
H          0.01814        3.50776       -0.33205
H          0.38862        2.15280        0.64250
H         -1.08615        2.15683       -0.23702
