31
1msa1dma1eda_152.log	Energy: -621167.8673512
S          1.29414       -1.34074       -0.18047
O          2.62633       -1.89214       -0.38011
O          0.62820       -0.73064       -1.33251
O          1.31090       -0.29275        1.00562
H          1.48929        0.68814        0.65494
C          0.23597       -2.58291        0.51619
H          0.15987       -3.37519       -0.23010
H          0.70948       -2.96130        1.42248
H         -0.74387       -2.13885        0.72782
H         -2.67212        1.27969        1.17147
H         -1.07777        0.55420        0.88122
H         -2.03010        1.32123       -1.22478
H         -1.87871       -0.43557       -1.22199
H         -4.38139        1.05631       -0.86362
H         -4.03512       -0.09630       -1.97209
H         -2.54107       -0.81985        2.32197
H         -3.49697       -1.07524        1.00771
C         -2.15209        0.41438        0.72138
C         -2.42880        0.39731       -0.77659
N         -2.54942       -0.86190        1.30902
N         -3.85894        0.20055       -1.01988
N          1.69903        2.14724        0.24927
C          0.87094        3.00008        1.10564
C          1.41170        2.32727       -1.17918
H          2.67963        2.35334        0.42113
H         -0.18040        2.74811        0.94267
H          1.10975        2.81025        2.15444
H          1.00914        4.06804        0.89087
H          0.39296        1.98689       -1.37746
H          1.51575        3.37562       -1.48887
H          2.08108        1.69860       -1.76777
