34
1msa1eda1tma_16.log	Energy: -645838.3572555
S         -1.52881       -1.13583       -0.06360
O         -0.84905       -1.65995        1.13586
O         -0.65293       -0.98821       -1.24303
O         -2.27232        0.14910        0.21899
H         -1.31603        1.33186        0.09295
C         -2.81018       -2.30330       -0.48829
H         -3.49406       -2.38419        0.35668
H         -3.32851       -1.93720       -1.37443
H         -2.33200       -3.26230       -0.68933
H          1.66749       -0.57025       -1.20121
H          3.25953       -0.90966       -1.86428
H          2.61840       -2.62007       -0.22056
H          3.99290       -1.69409        0.41076
H          1.19497       -1.44944        1.25056
H          2.52412       -1.67907        2.17206
H          3.01746        0.86301        0.41189
H          4.18999        0.82941       -0.71441
C          2.73533       -0.59516       -0.95563
C          2.92768       -1.63203        0.15298
N          3.18574        0.75226       -0.58656
N          2.18404       -1.20836        1.34160
N         -0.60188        2.14269        0.10306
C          0.05810        2.18378       -1.22537
H          0.48748        1.20447       -1.42637
H         -0.69626        2.41069       -1.97951
H          0.84340        2.94202       -1.21793
C         -1.35053        3.38267        0.39358
H         -2.09134        3.54197       -0.39082
H         -1.85832        3.27176        1.35229
H         -0.65873        4.22794        0.43112
C          0.35716        1.80950        1.18484
H         -0.18985        1.73859        2.12548
H          0.82163        0.84423        0.97805
H          1.12252        2.58722        1.24079
