23
1msa1a1dma_18.log	Energy: -537117.3279688
S         -1.45754       -0.54953        0.06849
O         -2.79869       -1.07259       -0.11350
O         -1.16142        0.21553        1.28276
O         -1.05711        0.34336       -1.18672
H         -0.96735        1.32189       -0.90013
C         -0.29194       -1.87895       -0.08765
H         -0.53395       -2.59758        0.69690
H         -0.43240       -2.33187       -1.06951
H          0.72229       -1.48391        0.04033
N          2.68094       -0.39446        0.44540
C          2.11841        0.94518        0.37000
C          3.74213       -0.61935       -0.52322
H          3.02252       -0.57102        1.38348
H          1.64605        1.07498       -0.61012
H          1.33909        1.05480        1.12895
H          2.86952        1.74487        0.49656
H          3.32080       -0.57482       -1.53330
H          4.55696        0.12292       -0.46533
H          4.16913       -1.61558       -0.38150
N         -0.84647        2.79915       -0.20660
H         -0.94217        2.50719        0.76476
H         -1.59932        3.44405       -0.42336
H          0.03424        3.29198       -0.31041
