28
1msa1ma1eda_20.log	Energy: -596522.2228585
S          1.64390       -0.03814       -0.01645
O          1.05378        0.29970        1.32313
O          1.55544        1.09645       -0.95942
O          1.06719       -1.29965       -0.54256
C          3.37753       -0.33516        0.28143
H          3.81411        0.57689        0.68865
H          3.46738       -1.15707        0.99174
H          3.84163       -0.59285       -0.67077
H         -3.28291        1.30161        0.32706
H         -2.40942        1.48109        1.87302
H         -2.16748        3.49002        0.28451
H         -0.63497        2.77191        0.79702
H         -1.47684        3.05100       -1.82477
H         -0.20698        2.11784       -1.30842
H         -1.89397       -0.75329        0.66678
H         -1.30965        0.23520       -0.53875
C         -2.29785        1.40298        0.78946
C         -1.53779        2.59968        0.19878
N         -1.50779        0.19814        0.47047
N         -1.20223        2.31286       -1.19228
H         -0.56150        0.23347        0.94188
N         -1.48253       -2.58297        0.46503
H         -0.48622       -2.38956        0.32779
C         -2.03214       -3.15393       -0.76848
H         -1.55567       -4.09492       -1.07036
H         -3.10500       -3.32981       -0.64935
H         -1.89322       -2.43687       -1.58217
H         -1.56368       -3.24402        1.23032
