29
1msa1ma1tma_25.log	Energy: -586436.9838046
S         -1.03154       -1.13014        0.01874
O         -2.19297       -2.00403        0.06563
O         -0.71430       -0.35245        1.22193
O         -1.14893       -0.12603       -1.19880
H         -1.49429        0.79499       -0.84130
C          0.39335       -2.06622       -0.46960
H          0.54527       -2.82727        0.29735
H          0.17734       -2.53308       -1.43082
H          1.24638       -1.38010       -0.52761
N         -2.06213        2.03336       -0.08482
H         -1.54660        1.98364        0.79153
C         -3.49582        1.81044        0.15961
H         -3.93711        2.55501        0.83059
H         -4.02721        1.82908       -0.79390
H         -3.62481        0.81904        0.59942
H         -1.89571        2.94660       -0.49515
N          2.65323        0.33415       -0.06718
C          3.94056        0.41528       -0.73260
H          4.48136       -0.52782       -0.60900
H          3.79423        0.58790       -1.80304
H          4.57388        1.23124       -0.33394
C          1.87086        1.54054       -0.27486
H          1.69952        1.69283       -1.34463
H          0.90127        1.42632        0.21664
H          2.37061        2.44093        0.13254
C          2.79907        0.04286        1.35001
H          1.80955       -0.06996        1.80218
H          3.34703       -0.89591        1.47879
H          3.34763        0.83884        1.88908
