33
1msa2eda_56.log	Energy: -655915.0650327
S         -1.49428        1.38700        0.00179
O         -2.26725        0.36111       -0.74932
O         -0.53747        2.13517       -0.83737
O         -0.84263        0.77704        1.20836
C         -2.67583        2.56769        0.62950
H         -3.17685        3.02508       -0.22394
H         -3.38951        2.03754        1.26005
H         -2.13274        3.31766        1.20477
H          0.28059       -3.34586       -0.78648
H          0.75946       -2.90485        0.87430
H         -1.42859       -4.16659        0.76148
H         -1.57938       -2.57782        1.52250
H         -3.18602       -3.32957       -0.41715
H         -2.64578       -1.77638       -0.42708
H          0.95979       -0.90778       -0.66764
H         -0.66841       -1.13670       -1.01491
C          0.01737       -2.74595        0.08759
C         -1.39240       -3.09083        0.56653
N          0.04952       -1.32379       -0.30299
N         -2.35668       -2.75333       -0.47221
H         -0.22525       -0.68764        0.48328
H          2.96624        1.97029        0.11848
H          1.69583        1.05668        0.93233
H          3.88756        0.36119        1.78150
H          3.14485       -0.97905        0.89663
H          5.25116        0.75856       -0.16990
H          5.32360       -0.85309        0.08451
H          1.31679        1.12086       -1.40124
H          2.76571        0.35515       -1.70600
C          2.53006        0.96570        0.22905
C          3.58619        0.01834        0.77998
N          2.00388        0.45602       -1.04143
N          4.69985       -0.09405       -0.16387
