33
1msa2eda_129.log	Energy: -655907.1287510
S          1.50370       -1.38947       -0.00145
O          1.99855       -2.74908        0.08679
O          0.68258       -1.01328       -1.15558
O          2.73383       -0.41724        0.11000
H          2.46415        0.60015        0.09938
C          0.55863       -1.01339        1.46389
H         -0.34881       -1.61871        1.41418
H          1.16190       -1.26864        2.33533
H          0.29706        0.04824        1.45578
H          1.37000        3.83135       -0.70168
H          1.77245        2.47446       -1.77294
H         -0.68354        2.69896       -1.45022
H         -0.05934        1.14228       -0.89072
H         -0.86656        3.36185        0.83615
H         -1.37511        1.79533        0.86757
H          3.08370        2.57931        0.33951
H          1.68152        2.23767        1.13563
C          1.36065        2.73586       -0.79410
C         -0.06952        2.21482       -0.67617
N          2.18487        2.11365        0.25533
N         -0.56979        2.40309        0.68366
H         -4.53456       -0.57125        0.19520
H         -4.06993        1.01158       -0.44867
H         -3.30953       -0.76025       -1.95618
H         -1.92543        0.07743       -1.25072
H         -2.81421       -2.60814       -0.58327
H         -1.30729       -2.03217       -0.91103
H         -3.53118        0.72896        1.93856
H         -2.46398       -0.43922        1.51320
C         -3.67512        0.08747       -0.01156
C         -2.75669       -0.59461       -1.01982
N         -2.91461        0.41637        1.19579
N         -2.19017       -1.81908       -0.45549
