23
1msa2ma_45.log	Energy: -537105.7392475
S         -1.34207        0.03893       -0.07644
O         -1.86015        1.38085        0.08761
O         -0.50934       -0.28817       -1.22906
O         -2.62695       -0.95696       -0.14320
H         -2.47148       -1.59771       -0.85118
C         -0.55653       -0.48082        1.42321
H          0.23953        0.25232        1.58952
H         -1.30251       -0.45290        2.21735
H         -0.13801       -1.47855        1.26363
N          1.56543       -2.34696       -0.17033
H          1.91819       -3.23744       -0.50257
C          2.66213       -1.48599        0.27067
H          3.42557       -1.28974       -0.49667
H          2.25538       -0.52117        0.58830
H          3.15605       -1.93906        1.13541
H          1.06513       -1.90529       -0.93649
N          1.29487        2.14978        0.58906
H          0.36827        2.54598        0.45582
C          1.99126        2.05314       -0.69576
H          2.12515        3.01452       -1.21157
H          2.97896        1.60947       -0.53937
H          1.42766        1.38476       -1.35133
H          1.79342        2.76861        1.21958
