23
1msa1a1dma_19.log	Energy: -537117.9507174
S          1.52043       -0.24776       -0.07556
O          2.94622       -0.41859        0.12240
O          1.04317        0.38327       -1.30851
O          0.91609        0.56070        1.15368
H          0.41724        1.39232        0.81862
C          0.72348       -1.82477        0.11388
H         -0.36048       -1.70211        0.01340
H          1.11790       -2.47159       -0.67133
H          0.99045       -2.21785        1.09530
N         -2.55896       -1.01596       -0.07817
C         -2.44252       -0.12139       -1.22004
C         -2.57257       -0.31501        1.19642
H         -3.39388       -1.58335       -0.16781
H         -1.44329        0.32637       -1.23333
H         -2.55129       -0.68864       -2.14769
H         -3.19428        0.68883       -1.21842
H         -1.59499        0.14669        1.36828
H         -3.34305        0.47480        1.25484
H         -2.74626       -1.02718        2.00720
N         -0.33941        2.63654        0.10094
H         -0.05669        2.46023       -0.86151
H         -0.02035        3.56211        0.36761
H         -1.35349        2.62345        0.14234
