33
1msa2eda_113.log	Energy: -655911.9139249
S          2.22193       -0.45172       -0.08872
O          1.62991       -1.40946       -1.02882
O          1.38410       -0.18450        1.11260
O          2.61676        0.85371       -0.73161
C          3.75655       -1.15144        0.49619
H          3.52955       -2.10001        0.98362
H          4.40622       -1.31007       -0.36482
H          4.20945       -0.45345        1.20020
H         -0.45072        2.34154       -1.89847
H         -0.36871        0.81421       -1.00961
H         -2.06128        3.26512       -0.27828
H         -2.63524        1.64871       -0.75439
H         -2.46786        2.22139        1.74880
H         -1.75130        0.79436        1.29433
H          0.70018        3.39422       -0.10625
H          0.37112        2.10783        0.89839
C         -0.51959        1.89106       -0.90720
C         -1.84708        2.19098       -0.21481
N          0.60588        2.38187       -0.06928
N         -1.72608        1.81704        1.19090
H          1.51825        1.88446       -0.34807
H         -3.61078       -2.66057        0.25942
H         -3.35113       -2.36039       -1.46338
H         -1.22198       -2.80565       -0.35235
H         -1.25456       -1.16908       -0.98389
H         -1.65338       -1.89151        1.82620
H         -0.42064       -1.02899        1.17983
H         -4.82934       -0.70748       -0.56599
H         -3.70547       -0.24465        0.53053
C         -3.18940       -1.94076       -0.46491
C         -1.69126       -1.82061       -0.22181
N         -3.83169       -0.62792       -0.40160
N         -1.42021       -1.22896        1.09164
