33
1msa2eda_11.log	Energy: -655916.9714692
S         -1.18697       -1.47133       -0.02090
O         -1.48712       -0.97867        1.33961
O          0.26009       -1.67648       -0.27251
O         -1.82304       -0.62252       -1.08365
H         -1.15346        0.85378       -1.33131
C         -1.96431       -3.06920       -0.17861
H         -1.53435       -3.72689        0.57720
H         -3.03462       -2.94286       -0.01539
H         -1.76670       -3.45050       -1.18037
H         -0.69208        3.68222       -0.48706
H         -2.21315        3.16671       -1.25769
H         -2.47335        3.13746        1.15813
H         -2.58486        1.49642        0.52055
H         -0.81716        2.38766        2.46395
H         -0.91077        0.89231        1.77806
H         -0.48091        2.02877       -2.33579
H          0.33496        1.56796       -0.91369
C         -1.37485        2.84073       -0.63458
C         -1.89178        2.32482        0.70787
N         -0.63532        1.77728       -1.36241
N         -0.80700        1.88920        1.58357
H          3.14165        0.64515       -1.53005
H          3.45071        1.94099       -0.37226
H          4.94776        0.07272        0.10276
H          3.80613        0.24069        1.42998
H          2.58612       -1.63835        0.54832
H          3.63246       -1.77927       -0.69424
H          1.26718       -0.02276       -0.10468
H          1.47145        1.32066        0.80652
C          3.05305        0.92368       -0.47210
C          3.89162       -0.04610        0.37408
N          1.63161        0.93713       -0.12349
N          3.54397       -1.45417        0.26288
