31
1msa1dma1eda_82.log	Energy: -621174.3726553
S         -0.85299       -1.35366        0.15941
O         -0.14031       -1.22274        1.43710
O         -0.13462       -0.77853       -1.00533
O         -2.26277       -0.80975        0.22614
H         -2.31354        0.65903        0.01612
C         -1.06452       -3.09409       -0.16400
H         -0.07205       -3.54033       -0.23392
H         -1.62261       -3.52882        0.66520
H         -1.60556       -3.20972       -1.10294
H          3.51583       -0.54651        1.02427
H          4.73325        0.27270        0.05013
H          3.36135        1.92004        1.25577
H          3.11735        2.09082       -0.48062
H          1.10300        0.79467       -0.23586
H          1.29723        0.68366        1.34176
H          2.23851       -0.92958       -0.95994
H          3.34508       -0.14151       -1.87740
C          3.65510        0.08850        0.14060
C          2.93369        1.42606        0.37444
N          3.22124       -0.67478       -1.02269
N          1.48801        1.30663        0.55712
N         -2.34030        1.74049       -0.14862
C         -1.77518        2.01597       -1.49086
C         -1.61315        2.41320        0.95879
H         -3.32276        2.00846       -0.12526
H         -0.79432        1.54374       -1.54233
H         -2.42223        1.56464       -2.24314
H         -1.69795        3.09342       -1.64730
H         -0.54364        2.19123        0.86624
H         -1.77417        3.49154        0.89612
H         -1.99158        2.02490        1.90477
