26
1msa1ma1dma_52.log	Energy: -561776.2977738
S          1.03605       -1.07106       -0.08735
O          2.32016       -1.68565       -0.37160
O          0.37099       -0.33252       -1.17081
O          1.14885       -0.10844        1.15653
H          1.05855        0.90251        0.83934
C         -0.07737       -2.30924        0.53305
H         -1.05005       -1.84289        0.71012
H         -0.15301       -3.07758       -0.23764
H          0.35331       -2.72527        1.44387
N         -2.52028       -0.05267       -0.05371
C         -2.30881        0.98452        0.93886
C         -3.79141        0.07470       -0.74430
H         -1.75240       -0.05247       -0.72026
H         -3.07256        0.90680        1.72043
H         -1.33277        0.84666        1.41305
H         -2.36445        2.01095        0.52708
H         -4.61110       -0.07722       -0.03325
H         -3.93907        1.06080       -1.22057
H         -3.86992       -0.69521       -1.51611
N          0.93195        2.27398        0.22998
H          0.19621        2.14204       -0.46026
C          2.19929        2.60987       -0.43846
H          2.14979        3.54922       -0.99835
H          2.98917        2.68140        0.31163
H          2.45155        1.79974       -1.12542
H          0.63809        3.01214        0.86224
