33
1msa2eda_71.log	Energy: -655914.5077729
S         -2.10802       -0.17799        0.08872
O         -2.44925        1.21351       -0.26401
O         -1.59954       -0.36391        1.45923
O         -1.16591       -0.77316       -0.93441
C         -3.60414       -1.14356       -0.05516
H         -4.31866       -0.75688        0.67217
H         -3.99031       -1.03381       -1.06868
H         -3.36650       -2.18565        0.15967
H          1.17989        3.06261       -1.20058
H         -0.54291        2.58290       -1.08553
H          0.19229        3.23112        1.10645
H         -0.10664        1.50211        1.09988
H          2.52495        2.78147        1.14479
H          1.93197        1.59197        2.09474
H          0.84766        1.08036       -2.41433
H          1.71774        0.58528       -1.07793
C          0.47795        2.32719       -0.79443
C          0.57072        2.27331        0.72267
N          0.79967        1.00679       -1.40019
N          1.93249        1.95795        1.14969
H          0.03231        0.29731       -1.19621
H          3.77919       -2.00352        0.54975
H          3.37559       -0.36645        1.12203
H          1.68718       -2.10940        1.80587
H          0.99406       -0.78055        0.89968
H          1.14708       -3.50606        0.07169
H          0.18336       -2.27248       -0.45919
H          3.98498       -0.39227       -1.22646
H          2.72116       -1.40913       -1.51869
C          3.06841       -1.16960        0.44650
C          1.66140       -1.64343        0.81256
N          3.04931       -0.64545       -0.92646
N          1.13646       -2.53731       -0.21988
