28
1msa1ma1eda_142.log	Energy: -596508.5266731
S          1.13392       -0.95183        0.05205
O          0.61535       -0.96369        1.41315
O          2.53858       -1.31700       -0.14878
O          0.89787        0.47104       -0.59902
H          1.82463        0.96797       -0.69252
C          0.09568       -1.97370       -0.96092
H          0.22347       -2.99700       -0.60445
H         -0.93810       -1.64143       -0.81044
H          0.42321       -1.88004       -1.99588
H         -2.71500        1.33338        1.32552
H         -1.54663        1.10072        0.01832
H         -3.55688        2.12903       -0.87888
H         -3.40271        0.48184       -1.51869
H         -5.22721        1.28665        0.63032
H         -5.61094        0.63005       -0.81732
H         -1.75858       -0.89003        1.36764
H         -3.34772       -1.02216        0.92408
C         -2.51079        0.75595        0.40599
C         -3.60196        1.06149       -0.61116
N         -2.43440       -0.68212        0.63801
N         -4.90645        0.64676       -0.08943
N          3.25539        1.51217       -0.68649
H          3.77185        0.66471       -0.91375
C          3.59024        1.95528        0.67532
H          4.65482        2.17657        0.80432
H          3.00890        2.84794        0.91507
H          3.30843        1.16608        1.37542
H          3.49050        2.22045       -1.37445
