34
1msa1eda1tma_54.log	Energy: -645832.6985885
S         -0.59469        1.60928       -0.13762
O         -1.70359        2.52670       -0.41721
O         -0.17608        0.76663       -1.28405
O         -0.88711        0.71226        1.06094
H         -1.56208       -0.46828        0.56066
C          0.81592        2.57146        0.36600
H          1.08841        3.20990       -0.47559
H          0.51625        3.17986        1.22021
H          1.63532        1.89649        0.63415
H          2.46732       -1.90152        1.18930
H          1.20017       -0.69480        0.86797
H          1.94666       -1.69325       -1.22965
H          2.36260        0.01759       -1.17832
H          4.23938       -2.20485       -0.77561
H          4.32703       -0.98718       -1.86505
H          2.91819        0.15004        2.39078
H          4.00995        0.05476        1.15901
C          2.26808       -0.90651        0.74754
C          2.59912       -0.95444       -0.73835
N          3.02507        0.16615        1.38313
N          4.02631       -1.22436       -0.92736
N         -2.08943       -1.34325        0.13190
C         -1.06082       -2.18466       -0.51867
H         -0.51841       -1.55290       -1.22448
H         -0.36905       -2.54816        0.24328
H         -1.53852       -3.02927       -1.02336
C         -2.77121       -2.03615        1.24179
H         -2.02719       -2.34478        1.97723
H         -3.47286       -1.34478        1.71001
H         -3.30569       -2.91178        0.86295
C         -3.04860       -0.79666       -0.85816
H         -3.70574       -0.08754       -0.35359
H         -2.48275       -0.26609       -1.62486
H         -3.62832       -1.61452       -1.29504
