23
1msa2ma_13.log	Energy: -537116.7209331
S          0.02582       -0.64231       -0.04519
O         -0.16034        0.80501       -0.21778
O          0.80932       -1.35138       -1.04264
O         -1.39975       -1.30342        0.09886
H         -2.14315       -0.63862       -0.24599
C          0.73514       -0.94303        1.55445
H          1.71042       -0.44420        1.54737
H          0.08020       -0.50868        2.30963
H          0.82992       -2.02062        1.68813
N          2.94238        1.25218        0.46969
H          2.05878        1.61486        0.12120
C          3.70872        0.64394       -0.61874
H          3.99327        1.34168       -1.42005
H          4.62287        0.19989       -0.21334
H          3.11543       -0.15966       -1.06231
H          3.45018        2.02738        0.88106
N         -3.13052        0.43900       -0.69498
H         -2.61840        0.94508       -1.41321
C         -3.41013        1.32622        0.44373
H         -4.02844        2.18899        0.17382
H         -3.91925        0.75616        1.22391
H         -2.45618        1.68086        0.83864
H         -3.98795        0.09108       -1.11295
