31
1msa1dma1eda_159.log	Energy: -621165.9822306
S         -0.36289       -1.29035        0.19470
O         -0.89626       -0.65667        1.39043
O          0.55537       -2.42041        0.35640
O          0.35442       -0.21026       -0.71276
H          1.40823       -0.39415       -0.71320
C         -1.72407       -1.75909       -0.84261
H         -2.30791       -2.49268       -0.28461
H         -2.31119       -0.85187       -1.03465
H         -1.32770       -2.19563       -1.75913
H          3.58995        1.78222       -1.12500
H          4.22553        2.21114        0.46455
H          4.69613       -0.08051        0.26390
H          3.26198       -0.00884        1.31001
H          3.29657       -0.71951       -1.53957
H          2.82321       -1.65306       -0.27356
H          2.04611        3.12832        0.26811
H          1.36306        1.65406        0.03453
C          3.43382        1.64608       -0.03868
C          3.62922        0.17136        0.29626
N          2.15388        2.13778        0.44982
N          2.86144       -0.69586       -0.62105
N         -3.26052        1.14861       -0.61422
C         -2.21646        2.13311       -0.35744
C         -3.98197        0.77415        0.59578
H         -3.91162        1.51493       -1.30030
H         -1.48850        1.70390        0.33694
H         -1.69692        2.36959       -1.29009
H         -2.60039        3.06916        0.08400
H         -3.28492        0.28556        1.28363
H         -4.43650        1.63280        1.11893
H         -4.77382        0.06157        0.34618
