34
1msa1eda1tma_59.log	Energy: -645833.5177205
S          2.15673       -0.53343       -0.16904
O          1.37531       -1.29960       -1.14357
O          1.45904       -0.40830        1.16821
O          2.59372        0.81341       -0.63141
H          1.57006        2.22529        0.30680
C          3.64156       -1.46319        0.17016
H          3.34844       -2.43168        0.57576
H          4.17574       -1.58798       -0.77210
H          4.24592       -0.90806        0.88732
H         -1.22957        1.94582        1.23491
H         -0.69422        3.45749        0.47287
H         -0.08907        2.27684       -1.58126
H         -0.37160        0.70737       -0.83469
H         -2.23814        1.86214       -2.21326
H         -2.60838        1.07647       -0.81535
H          1.08319        2.70845        1.83955
H          0.99418        1.08560        1.28678
C         -0.52400        2.38007        0.52254
C         -0.71565        1.74967       -0.85431
N          0.85042        2.12319        1.04136
N         -2.12180        1.88643       -1.20718
N         -2.64382       -0.83752        0.15200
C         -2.09908       -1.73487       -0.86077
H         -2.58473       -1.53981       -1.82257
H         -1.02347       -1.57262       -0.97350
H         -2.26329       -2.79754       -0.60286
C         -1.93604       -0.99149        1.41491
H         -0.86251       -0.84300        1.26620
H         -2.30527       -0.25430        2.13747
H         -2.08073       -1.99637        1.85473
C         -4.07176       -1.04675        0.32488
H         -4.46758       -0.33146        1.05272
H         -4.58840       -0.88873       -0.62705
H         -4.30657       -2.06842        0.67858
