29
1msa1ma1tma_07.log	Energy: -586445.5730117
S          1.78615        0.11553       -0.07372
O          2.42815       -0.53527       -1.21951
O          1.66646       -0.72055        1.14168
O          0.43164        0.69890       -0.43216
C          2.77652        1.53793        0.36131
H          3.77332        1.17928        0.61969
H          2.82081        2.20184       -0.50233
H          2.31626        2.03732        1.21410
N         -2.02532        1.91306        0.63979
H         -2.23069        2.47109        1.46159
C         -2.38545        2.64335       -0.57589
H         -1.91546        3.63231       -0.66847
H         -2.07632        2.05510       -1.44480
H         -3.47119        2.77459       -0.62531
H         -1.02236        1.73021        0.62639
N         -1.27561       -1.28331       -0.01751
C         -2.55028       -1.03932       -0.72810
H         -2.98487       -0.12435       -0.32193
H         -2.34098       -0.91489       -1.79155
H         -3.21833       -1.89127       -0.57728
C         -0.55010       -2.46441       -0.54762
H         -0.33054       -2.29570       -1.60233
H          0.38842       -2.56508       -0.00164
H         -1.17264       -3.35384       -0.42302
C         -1.46685       -1.36967        1.45114
H         -0.47839       -1.41225        1.91120
H         -1.99261       -0.46946        1.77163
H         -2.05130       -2.26348        1.68487
H         -0.63802       -0.44007       -0.19231
