31
1msa1dma1eda_83.log	Energy: -621174.8048254
S         -2.39126       -0.38912        0.14400
O         -2.75793        0.65330       -0.84717
O         -2.62087       -0.02395        1.54492
O         -0.97008       -0.85062       -0.11109
C         -3.40026       -1.81989       -0.20848
H         -3.10964       -2.61732        0.47578
H         -4.44183       -1.53996       -0.04779
H         -3.23521       -2.11577       -1.24432
H          0.10959        3.29603       -0.29598
H         -0.88205        2.13985        0.63555
H          1.42559        2.52345        1.66381
H          1.09786        0.84200        1.24451
H          3.01593        2.57897       -0.02620
H          2.96701        0.91987        0.11798
H         -0.84435        1.63155       -1.74300
H          0.85096        1.40364       -1.60614
C          0.03173        2.26188        0.05087
C          1.27838        1.83645        0.82263
N         -0.06165        1.37929       -1.13887
N          2.42115        1.76206       -0.08693
H         -0.29542        0.38562       -0.80153
N          3.26876       -1.08569        0.42731
C          4.63352       -1.39647        0.02300
C          2.26945       -1.65510       -0.47264
H          3.10623       -1.42877        1.36791
H          4.84210       -0.91264       -0.93756
H          5.33972       -1.00316        0.75907
H          4.81712       -2.47649       -0.09952
H          2.33911       -1.15284       -1.44461
H          2.40942       -2.73472       -0.64311
H          1.26430       -1.49410       -0.07496
