28
1msa1ma1eda_01.log	Energy: -596525.3910390
S         -1.60761       -0.67149       -0.02152
O         -2.25344        0.43948       -0.75436
O         -1.08109       -0.28159        1.30636
O         -0.55776       -1.36174       -0.84600
C         -2.86881       -1.90538        0.25036
H         -3.65430       -1.45385        0.85686
H         -3.26026       -2.21241       -0.71958
H         -2.41688       -2.75003        0.77049
H          2.62742        1.04581        0.89540
H          1.18091        0.07854        1.30561
H          3.26754       -1.27442        1.61628
H          2.22473       -1.93727        0.35198
H          4.71751       -0.46447       -0.07958
H          4.23488       -1.88187       -0.73498
H          0.95994        1.32442       -0.80327
H          2.23639        0.30931       -1.41355
C          2.02810        0.17140        0.62172
C          2.87426       -1.09428        0.60739
N          1.47670        0.39160       -0.73461
N          3.91052       -0.97513       -0.42170
H          0.74520       -0.35016       -0.92341
N         -0.21799        2.58999       -0.67010
H         -0.17122        3.39283       -1.28903
C         -0.34288        3.01527        0.73156
H         -1.16006        3.72803        0.89529
H         -0.53974        2.12800        1.33908
H          0.59138        3.47738        1.06630
H         -1.05195        2.04761       -0.91882
