26
1msa1a1tma_05.log	Energy: -561785.2698878
S         -1.99304        0.01058        0.00241
O         -3.34949        0.55152        0.00571
O         -1.19002        0.33493        1.22856
O         -1.19397        0.34713       -1.22547
H         -0.02219        1.58079       -0.79303
C         -2.13316       -1.77216       -0.00863
H         -2.67963       -2.07221        0.88593
H         -2.68088       -2.06130       -0.90601
H         -1.13331       -2.20838       -0.01195
N          0.57873        1.92616       -0.00714
H          0.73692        2.92769       -0.02947
H          1.47033        1.34272       -0.00560
H         -0.00154        1.61684        0.80312
N          2.50878       -0.06193       -0.00011
C          2.06608       -0.77556       -1.20055
H          0.97320       -0.82678       -1.21899
H          2.39443       -0.23246       -2.09152
H          2.48130       -1.79551       -1.24259
C          3.95572        0.12828       -0.00235
H          4.25500        0.68710       -0.89350
H          4.25642        0.69659        0.88231
H          4.49565       -0.83301        0.00238
C          2.06817       -0.76383        1.20806
H          2.39766       -0.21157        2.09301
H          0.97530       -0.81549        1.22865
H          2.48434       -1.78295        1.25987
