29
1msa1ma1tma_23.log	Energy: -586436.9742972
S          0.74085       -0.53229       -0.03578
O         -0.01401       -1.46610       -0.85641
O          1.06161        0.78282       -0.59747
O          2.08802       -1.20781        0.43908
H          2.91129       -0.67602        0.05649
C         -0.12115       -0.31261        1.49980
H         -1.10559        0.10276        1.24569
H         -0.22481       -1.29039        1.97123
H          0.45706        0.36516        2.12768
N          4.01959        0.23318       -0.49779
H          4.89519       -0.22970       -0.72094
C          4.22396        1.34772        0.43864
H          4.92914        2.09869        0.06669
H          3.25717        1.82382        0.61282
H          4.59528        0.95326        1.38715
H          3.61747        0.57725       -1.36625
N         -3.02915        0.37565        0.09402
C         -3.34302       -1.03111       -0.10474
H         -2.47662       -1.53976       -0.53549
H         -3.57645       -1.49690        0.85835
H         -4.21067       -1.17567       -0.77641
C         -4.13208        1.08051        0.72063
H         -4.36705        0.62033        1.68546
H         -3.85606        2.12467        0.89675
H         -5.04969        1.06747        0.10064
C         -2.64022        1.00510       -1.15903
H         -2.34185        2.04145       -0.97594
H         -1.78696        0.47519       -1.58929
H         -3.46342        1.00430       -1.89904
