25
1msa1a1eda_13.log	Energy: -571865.5779510
S         -1.46930       -0.38579       -0.00603
O         -0.33135       -1.04627        0.71823
O         -1.03386        0.14528       -1.31988
O         -2.15976        0.61415        0.83601
C         -2.64600       -1.68948       -0.32662
H         -2.16626       -2.44201       -0.95274
H         -2.95012       -2.11643        0.62911
H         -3.50073       -1.24918       -0.84059
H          1.27932        0.22683       -1.26277
H          2.57618        1.43069       -1.10790
H          3.35709       -0.97710       -1.45312
H          4.09130       -0.13419       -0.08470
H          1.74114       -1.86764        0.30784
H          3.30587       -2.30740        0.61781
H          0.89075        1.80793        0.50478
H          0.88249        0.17492        0.95620
C          2.12100        0.55201       -0.64477
C          3.14984       -0.55955       -0.45566
N          1.51508        0.95574        0.65102
N          2.67396       -1.52223        0.52582
H          2.21436        1.11850        1.37221
N         -0.40757        2.86097        0.02247
H         -0.45826        3.86869        0.12458
H         -1.18723        2.43172        0.52931
H         -0.58669        2.62273       -0.95127
