33
1msa2eda_45.log	Energy: -655916.1026886
S         -2.44227       -0.07012        0.05575
O         -2.39415        0.96360       -1.00220
O         -1.59353        0.24729        1.23014
O         -2.14938       -1.44636       -0.46317
C         -4.13357       -0.12932        0.62766
H         -4.38851        0.85258        1.02714
H         -4.77155       -0.37776       -0.22076
H         -4.20680       -0.89230        1.40278
H          1.39186       -3.18176       -0.50272
H          1.36706       -2.02173       -1.84016
H          3.67306       -2.23023       -0.95110
H          3.03923       -0.59720       -0.67766
H          3.28423       -2.68060        1.36961
H          3.85245       -1.14817        1.39122
H         -0.46853       -1.60286       -0.21884
H          0.71538       -1.30236        0.94077
C          1.53527       -2.12929       -0.76602
C          2.93176       -1.64857       -0.38537
N          0.52996       -1.31648       -0.06328
N          3.09126       -1.73174        1.06627
H          0.57669       -0.29851       -0.42002
H          0.78072        3.24224       -0.32978
H         -0.05207        2.09052        0.73141
H          2.18471        2.63408        1.58556
H          2.03863        0.91408        1.20427
H          3.31120        2.86254       -0.58956
H          4.09122        1.76334        0.31801
H         -0.41059        1.32890       -1.39094
H          1.19792        1.41761       -1.82660
C          0.77960        2.20139        0.03023
C          2.08547        1.91469        0.75873
N          0.55490        1.24801       -1.06028
N          3.22034        1.94020       -0.17188
