16
1msa1ma.log	Energy: -476971.2505427
H         -1.41165       -0.70676       -0.76971
H         -1.47448       -0.73636        0.81322
H         -2.70949       -1.57422       -0.02984
H         -2.24959        1.35211        0.03800
H         -3.52824        0.56926       -0.92428
H         -3.60434        0.53647        0.86284
C         -2.94553        0.51388       -0.00507
N         -2.14475       -0.73006        0.00203
O          1.14963        1.57611       -0.00696
O          0.14247       -0.33002        1.23673
O          0.11837       -0.33736       -1.21733
S          0.85822        0.14460        0.00426
C          2.41667       -0.72383       -0.01462
H          2.95018       -0.43349       -0.91998
H          2.97592       -0.42416        0.87204
H          2.22277       -1.79622       -0.00606
