32
1msa1dma1tma_14.log	Energy: -611100.4590874
S          1.90710       -0.53256       -0.05585
O          1.39687       -1.50852       -1.02406
O          1.13258       -0.42359        1.19925
O          2.10323        0.84324       -0.66572
H          0.98040        1.73186       -0.37705
C          3.56054       -1.04301        0.38698
H          3.49040       -2.03089        0.84318
H          4.16021       -1.08235       -0.52256
H          3.97004       -0.32058        1.09300
N          0.11818        2.40330       -0.23362
C         -0.31270        2.35200        1.18287
C         -0.94028        1.98980       -1.18728
H          0.44674        3.33912       -0.46534
H         -0.49156        1.30624        1.43240
H          0.49420        2.72917        1.81128
H         -1.21641        2.95048        1.31636
H         -1.37257        1.04774       -0.82675
H         -1.71829        2.75585       -1.22734
H         -0.48733        1.85262       -2.16957
N         -2.48598       -0.65606        0.03279
C         -2.13754       -1.09646        1.37609
H         -1.05335       -1.21233        1.45464
H         -2.46309       -0.34680        2.10617
H         -2.62281       -2.05642        1.63595
C         -3.91358       -0.42700       -0.09383
H         -4.24038        0.31706        0.64005
H         -4.14301       -0.04676       -1.09493
H         -4.50536       -1.34882        0.06567
C         -2.01538       -1.61091       -0.96356
H         -2.23667       -1.23325       -1.96787
H         -0.93327       -1.74036       -0.87818
H         -2.50486       -2.59685       -0.85310
