23
1msa1a1dma_30.log	Energy: -537108.1614297
S         -1.14750       -0.61979       -0.07170
O         -0.57039        0.07765       -1.20835
O         -1.12367       -2.07366       -0.02842
O         -2.71638       -0.17950        0.01646
H         -3.24649       -0.98584       -0.05645
C         -0.51465        0.07730        1.42316
H          0.56408       -0.13551        1.41081
H         -0.69396        1.15637        1.37782
H         -1.01766       -0.39965        2.26402
N          2.61477       -0.21711        0.54672
C          2.60846        1.09913       -0.07794
C          2.70815       -1.29908       -0.42598
H          3.38512       -0.28115        1.20324
H          1.71226        1.18788       -0.70014
H          2.56348        1.87344        0.69332
H          3.48828        1.28728       -0.71640
H          1.82695       -1.27552       -1.07395
H          3.60296       -1.23330       -1.06821
H          2.71828       -2.26142        0.09197
N         -0.82927        3.01777       -0.08705
H         -0.12132        3.73344       -0.20888
H         -1.73534        3.45584       -0.21278
H         -0.71338        2.33009       -0.82767
