31
1msa1dma1eda_130.log	Energy: -621170.9889109
S         -2.00605       -0.37540        0.04372
O         -2.40382        0.98992        0.40351
O         -1.62463       -1.23915        1.19729
O         -0.91591       -0.40044       -1.00016
H          0.43648       -0.66550       -0.16318
C         -3.41481       -1.15391       -0.72507
H         -4.22727       -1.15846        0.00196
H         -3.68874       -0.56708       -1.60208
H         -3.14336       -2.17123       -1.00660
H          2.30545       -2.68892        1.00529
H          1.35296       -2.80214       -0.49267
H          3.76208       -2.23984       -0.98351
H          2.66311       -0.95553       -1.49400
H          4.45811       -0.86444        0.80116
H          4.07208        0.31593       -0.27176
H          0.28082       -1.37187        1.26903
H          1.60264       -0.32152        1.04718
C          1.93010       -2.12935        0.14421
C          3.07584       -1.46604       -0.61801
N          1.03182       -1.06329        0.62790
N          3.70575       -0.47178        0.24756
N          0.20763        2.70744       -0.24324
C          0.72183        2.78743        1.10335
C          1.17067        2.22419       -1.20284
H         -0.64763        2.15891       -0.26459
H          1.50677        3.55141        1.16352
H         -0.08097        3.06501        1.78967
H          1.16817        1.83953        1.47342
H          1.96889        2.96556       -1.33817
H          1.65900        1.27165       -0.90732
H          0.68501        2.06170       -2.16736
