32
1msa1dma1tma_25.log	Energy: -611096.8803206
S         -1.16667       -1.52110        0.04408
O         -2.31275       -2.39343       -0.15532
O         -0.94241       -0.97636        1.38712
O         -1.20647       -0.31980       -0.97318
H         -1.52426        0.59417       -0.48338
C          0.29842       -2.37407       -0.49221
H          0.40286       -3.24938        0.15049
H          0.14514       -2.68153       -1.52699
H          1.16488       -1.71157       -0.39904
N         -1.93690        1.85190        0.12621
C         -2.11545        2.87017       -0.91306
C         -0.97922        2.24630        1.16703
H         -2.83322        1.65095        0.56332
H         -1.16153        3.01733       -1.42643
H         -2.84908        2.52121       -1.64247
H         -2.44336        3.83193       -0.49904
H         -0.00023        2.39768        0.70425
H         -1.27858        3.17507        1.66861
H         -0.89610        1.43485        1.89151
N          2.71453        0.04601       -0.12335
C          4.15423        0.11353       -0.29868
H          4.64224       -0.61813        0.35165
H          4.41297       -0.12332       -1.33494
H          4.56392        1.11448       -0.06068
C          2.02950        0.95459       -1.02522
H          2.31663        0.74052       -2.05899
H          0.94877        0.80997       -0.94388
H          2.26728        2.01694       -0.81451
C          2.33486        0.29082        1.25862
H          1.26018        0.13330        1.38691
H          2.85640       -0.41239        1.91424
H          2.58735        1.31889        1.58632
