31
1msa1dma1eda_51.log	Energy: -621179.9560538
S         -0.37420       -1.70232       -0.07062
O          0.83946       -2.21189       -0.72496
O         -1.20918       -0.83243       -0.96539
O         -0.11195       -1.00465        1.22185
C         -1.39265       -3.11644        0.32096
H         -0.81859       -3.76710        0.98104
H         -2.29898       -2.76828        0.81663
H         -1.63174       -3.62953       -0.61084
H         -0.78608        3.24904        0.85954
H         -0.42945        3.35831       -0.88219
H         -2.89697        3.34094       -0.34869
H         -2.39719        2.05470       -1.45407
H         -3.84857        1.51406        0.63560
H         -2.61287        0.50053        0.26396
H         -0.30257        0.93464        0.83964
H         -0.36599        0.80495       -0.74687
C         -0.86851        2.73342       -0.09972
C         -2.32705        2.40930       -0.41375
N         -0.08649        1.48192       -0.00975
N         -2.84171        1.45055        0.55420
H          0.97370        1.59446       -0.03331
N          2.68820        1.31490        0.01590
C          2.99028        0.43058       -1.11755
C          2.88262        0.64023        1.30612
H          3.29169        2.13041       -0.02814
H          2.31881       -0.43411       -1.09226
H          2.83496        0.97042       -2.05583
H          4.02462        0.05916       -1.09045
H          2.15082       -0.16848        1.39789
H          3.89162        0.21678        1.40941
H          2.71519        1.35380        2.11800
