26
1msa1ma1dma_45.log	Energy: -561776.4756187
S         -0.25001        0.52019        0.23312
O         -0.67232        0.04839        1.54669
O         -0.02816       -0.49227       -0.80493
O          1.04692        1.40206        0.35969
H          1.93473        0.79356        0.25381
C         -1.42227        1.71458       -0.35381
H         -2.38296        1.19362       -0.45793
H         -1.48933        2.51171        0.38698
H         -1.07053        2.09818       -1.31143
N          3.09878       -0.08157        0.07344
C          3.27160       -0.30037       -1.36811
C          2.83285       -1.32682        0.80763
H          3.92843        0.36513        0.45429
H          2.32674       -0.67364       -1.77058
H          3.50428        0.65042       -1.85242
H          4.06966       -1.02243       -1.58262
H          1.90757       -1.76131        0.42187
H          3.64729       -2.05308        0.69331
H          2.69018       -1.10062        1.86620
N         -4.10825       -0.29370       -0.44494
H         -4.81210       -0.09259        0.25715
C         -3.34851       -1.49551       -0.08631
H         -3.95707       -2.40737       -0.00083
H         -2.57032       -1.66418       -0.83500
H         -2.83758       -1.32476        0.86420
H         -4.59604       -0.42545       -1.32446
