31
1msa1dma1eda_39.log	Energy: -621181.7883708
S          2.05656       -0.16493       -0.02634
O          1.67255       -0.99118        1.16791
O          2.03484        1.28547        0.26511
O          1.26423       -0.54215       -1.21920
C          3.75711       -0.59097       -0.36308
H          4.35293       -0.32804        0.51120
H          3.81144       -1.66163       -0.56058
H          4.07925       -0.02029       -1.23442
H         -0.89123       -1.52701       -0.92333
H         -0.97286       -2.82700        0.26028
H         -3.10513       -2.68148       -0.95992
H         -3.33881       -2.35312        0.75685
H         -3.18023       -0.25834       -1.28999
H         -4.49198       -0.67164       -0.40469
H          0.02747       -0.97160        1.23711
H         -1.11528        0.15086        0.67323
C         -1.39084       -1.85332       -0.00709
C         -2.90008       -1.94932       -0.16427
N         -1.00624       -0.87076        1.03209
N         -3.47948       -0.63079       -0.39410
H         -1.54787       -0.98812        1.88561
N         -0.89210        1.72029        0.14383
C         -1.67062        2.67513        0.92332
C         -1.08192        1.87235       -1.29674
H          0.10909        1.83095        0.33422
H         -2.73771        2.47794        0.77543
H         -1.44286        2.55504        1.98625
H         -1.46805        3.71960        0.64296
H         -2.13352        1.69169       -1.54595
H         -0.82268        2.88229       -1.64700
H         -0.44698        1.14728       -1.81211
