31
1msa1dma1eda_62.log	Energy: -621178.2795775
S         -1.92069        0.11030       -0.00579
O         -1.05777        0.65047       -1.08294
O         -1.44791        0.43310        1.35123
O         -2.14379       -1.36943       -0.19951
C         -3.53593        0.84094       -0.20016
H         -3.42977        1.91786       -0.06695
H         -3.90229        0.60946       -1.20019
H         -4.19413        0.42328        0.56182
H          0.56042       -1.01554        1.06646
H          0.72581       -2.72445        1.49033
H          2.94494       -1.45178        1.35537
H          2.88967       -2.87360        0.30399
H          2.43199       -0.09156       -0.55754
H          3.59628       -1.15671       -1.10700
H         -0.77734       -2.00770       -0.46923
H          0.74694       -1.76888       -1.26412
C          0.96746       -1.97491        0.73548
C          2.46760       -1.87289        0.45930
N          0.26046       -2.31081       -0.53046
N          2.65123       -1.08367       -0.75124
H          0.33714       -3.29829       -0.76372
N          1.60765        1.62127       -0.07247
C          2.19111        2.64647       -0.92382
C          1.56959        2.00825        1.33077
H          0.65764        1.42177       -0.39086
H          3.25225        2.77701       -0.67973
H          2.11721        2.33954       -1.97097
H          1.69945        3.62791       -0.81671
H          2.58669        2.03390        1.74056
H          1.11583        3.00083        1.48850
H          0.97384        1.28440        1.89215
