17
1msa2a_07.log	Energy: -487794.0299808
S          1.09635       -0.03426       -0.12317
O          0.41230       -0.73833       -1.18967
O          2.54163       -0.12195        0.01162
O          0.46999       -0.58562        1.28137
H          1.21340       -0.81257        1.85798
C          0.56224        1.65361       -0.09774
H          0.89751        2.09378       -1.03851
H         -0.53653        1.67200       -0.01989
H          1.04090        2.14721        0.74825
N         -2.35518       -1.61595       -0.05036
H         -3.00816       -2.33197       -0.34890
H         -1.95970       -1.90470        0.83849
H         -1.58384       -1.58730       -0.71326
N         -2.68287        1.45821        0.07629
H         -3.18822        1.81162       -0.72987
H         -3.17895        1.77619        0.90252
H         -2.73644        0.43363        0.05229
