31
1msa1dma1eda_147.log	Energy: -621169.9027196
S          1.95773       -0.23045       -0.11930
O          2.47874        1.10281        0.23460
O          1.40812       -0.34553       -1.47898
O          0.95593       -0.70523        0.92175
H         -0.04454        0.28725        1.21961
C          3.30126       -1.39527        0.01904
H          3.71403       -1.33012        1.02560
H          2.91062       -2.39313       -0.17980
H          4.05084       -1.12012       -0.72336
H         -0.97037        3.16785        1.11177
H          0.63400        2.46607        0.71498
H         -0.65832        2.99566       -1.35613
H         -0.31080        1.27229       -1.20852
H         -2.91158        2.54685       -0.77113
H         -2.54082        1.21248       -1.63708
H         -0.78304        1.25495        2.44372
H         -1.71577        0.78885        1.14020
C         -0.44694        2.31779        0.66345
C         -0.89229        2.09400       -0.77765
N         -0.78239        1.09234        1.44013
N         -2.31263        1.72811       -0.79451
N         -2.88466       -1.49328       -0.11298
C         -1.94377       -1.71813       -1.20426
C         -2.42699       -2.06094        1.14607
H         -3.05394       -0.49718       -0.01808
H         -1.84662       -2.79543       -1.37688
H         -2.34116       -1.27991       -2.12569
H         -0.93405       -1.31783       -1.02494
H         -2.45150       -3.15421        1.07905
H         -1.39417       -1.77963        1.41659
H         -3.10867       -1.76886        1.95162
