31
1msa1dma1eda_64.log	Energy: -621177.3574919
S          2.12584       -0.04702       -0.04941
O          2.21468        1.17454       -0.85291
O          2.10875       -1.31627       -0.82246
O          0.95162       -0.02195        0.90948
C          3.57076       -0.10324        0.99742
H          4.44711       -0.13231        0.34917
H          3.57927        0.79719        1.61202
H          3.51958       -0.99771        1.61816
H         -1.97672       -3.23478       -0.55932
H         -1.18496       -2.99776        1.02316
H         -3.63459       -2.18901        0.88572
H         -2.47519       -0.98237        1.45209
H         -4.13579       -0.64231       -0.69320
H         -2.73344        0.22388       -0.40732
H          0.20669       -2.13991       -0.87374
H         -1.07010       -1.11007       -1.21798
C         -1.63655       -2.49284        0.16692
C         -2.78822       -1.56906        0.57733
N         -0.60756       -1.65323       -0.48044
N         -3.13801       -0.71071       -0.54826
H         -0.14812       -0.96447        0.18960
N         -1.40082        1.66121        0.11100
C         -2.12920        2.51535        1.03813
C         -1.04615        2.35251       -1.12488
H         -0.54121        1.33047        0.54986
H         -3.10426        2.77817        0.61090
H         -2.30436        1.98058        1.97620
H         -1.60066        3.45481        1.26809
H         -1.95047        2.54386       -1.71495
H         -0.54200        3.31480       -0.94638
H         -0.36375        1.73141       -1.70984
