34
1msa1eda1tma_20.log	Energy: -645840.5095628
S         -1.74532       -0.76562       -0.17420
O         -1.19387       -2.03935       -0.64222
O         -1.96212        0.26863       -1.20968
O         -0.93796       -0.17479        0.96779
C         -3.34163       -1.11699        0.54898
H         -3.98036       -1.52086       -0.23718
H         -3.20367       -1.85147        1.34280
H         -3.75908       -0.19123        0.94530
H          1.20681       -0.92290       -1.08432
H          2.40436       -2.02139       -1.73294
H          1.34763       -2.92493        0.30234
H          3.08108       -2.63792        0.59492
H          0.85426       -0.97169        1.49469
H          2.02333       -1.66680        2.40619
H          3.36235       -0.05004        0.12952
H          4.08797       -0.60453       -1.22585
C          2.19723       -1.35284       -0.89193
C          2.11673       -2.14840        0.40841
N          3.20346       -0.28293       -0.84920
N          1.84487       -1.22022        1.51363
N          0.22694        2.03522        0.12594
C         -0.90460        2.98898        0.18534
H         -1.64488        2.67115       -0.54957
H         -1.34516        2.94883        1.18232
H         -0.54200        3.99742       -0.02872
C          1.26245        2.31142        1.14688
H          0.77973        2.39661        2.12135
H          1.95816        1.47104        1.16701
H          1.78011        3.24169        0.90088
C          0.79551        1.95496       -1.24531
H          1.67903        1.30809       -1.23706
H          0.02467        1.54451       -1.89880
H          1.07781        2.96265       -1.56305
H         -0.19643        1.08842        0.38336
