25
1msa1a1eda_03.log	Energy: -571866.9082824
S          1.84742       -0.16021       -0.01843
O          1.10987       -0.00546        1.25949
O          2.20503        1.12682       -0.65083
O          1.12061       -1.07953       -0.95882
C          3.37984       -0.99728        0.35235
H          3.14676       -1.95156        0.82471
H          3.91609       -1.14962       -0.58441
H          3.95566       -0.36233        1.02608
H         -1.93484       -1.83352        0.28889
H         -1.20748       -0.54651        1.26275
H         -3.69473       -0.66332        1.64516
H         -3.24135        0.87025        0.89401
H         -4.47762       -1.39439       -0.49305
H         -4.96571        0.16467       -0.45234
H         -0.43822       -0.56341       -1.01899
H         -2.05522       -0.18080       -1.51635
C         -1.91130       -0.75223        0.45326
C         -3.30711       -0.20941        0.72324
N         -1.36512       -0.11671       -0.76644
N         -4.14948       -0.43494       -0.45307
H         -1.14520        0.90088       -0.56033
N         -0.40382        2.38599        0.06913
H         -0.75923        3.33454        0.01795
H          0.50628        2.34639       -0.39868
H         -0.18761        2.17066        1.04034
