33
1msa2eda_102.log	Energy: -655910.9168939
S          1.57431       -1.25391       -0.06974
O          0.78563       -1.33644       -1.31113
O          0.78574       -0.97867        1.15051
O          2.71920       -0.27416       -0.17997
H          2.26835        0.96457        0.60422
C          2.35453       -2.84540        0.14630
H          2.97473       -3.04360       -0.72803
H          2.95903       -2.81525        1.05290
H          1.56622       -3.59368        0.23374
H          1.57917        3.86419        0.38233
H          2.60247        2.86322       -0.68562
H          0.28170        3.23749       -1.64795
H          0.63301        1.52815       -1.36424
H         -1.21758        3.16204        0.14449
H         -1.26701        1.53979       -0.24655
H          2.39493        2.19198        1.80146
H          0.87828        1.64720        1.31842
C          1.70009        2.87636       -0.07113
C          0.44887        2.48645       -0.86576
N          1.84313        1.87105        1.01131
N         -0.66183        2.31896        0.06100
H         -2.59454       -1.94170        0.08846
H         -1.63971       -0.81172        1.04754
H         -3.95989       -0.74160        1.79184
H         -3.55658        0.80020        1.01522
H         -5.07272       -1.36136       -0.26249
H         -5.60618        0.14003        0.09984
H         -1.13647       -0.58623       -1.26639
H         -2.70463       -0.15630       -1.59691
C         -2.42703       -0.86933        0.29056
C         -3.71731       -0.26753        0.82769
N         -1.97396       -0.14017       -0.89155
N         -4.78605       -0.39185       -0.16758
