23
1msa1a1dma_13.log	Energy: -537118.4202331
S         -0.98107       -0.69069        0.01037
O         -0.32213       -1.31407       -1.12383
O         -2.41046       -0.92827        0.21521
O         -0.74794        0.88398       -0.05594
H         -1.65054        1.36922       -0.15416
C         -0.08148       -1.10654        1.48299
H         -0.12393       -2.19188        1.58365
H          0.94635       -0.75318        1.33872
H         -0.56201       -0.61962        2.33144
N          2.45681        0.40980        0.05762
C          3.04174       -0.53699       -0.88003
C          3.40494        1.40240        0.53292
H          1.66345        0.87164       -0.37672
H          3.79958       -1.13715       -0.36362
H          2.26197       -1.20733       -1.24913
H          3.52896       -0.05267       -1.74434
H          4.18787        0.90814        1.11900
H          3.90060        1.96375       -0.27897
H          2.89634        2.11619        1.18702
N         -3.16400        1.90936       -0.29775
H         -3.65090        1.02672       -0.14912
H         -3.40833        2.25761       -1.21911
H         -3.48890        2.57914        0.39147
