28
1msa1ma1eda_72.log	Energy: -596518.6738143
S          1.43973       -0.50990       -0.05374
O          1.29780        0.26812       -1.29864
O          0.89312       -1.88242       -0.12198
O          0.88790        0.23307        1.13817
H         -0.62648       -0.04139        1.33207
C          3.18703       -0.66000        0.27358
H          3.63745       -1.19021       -0.56584
H          3.60599        0.34236        0.36387
H          3.31737       -1.21927        1.19995
H         -3.54701       -0.01927        0.59041
H         -2.26728        1.14901        0.06013
H         -2.90638       -0.70831       -1.63954
H         -1.19143       -0.47976       -1.30475
H         -2.65348       -2.82958       -0.86667
H         -1.06425       -2.52122       -0.49934
H         -1.99698        0.05471        2.34452
H         -1.70247       -1.34832        1.46078
C         -2.49956        0.10637        0.30191
C         -2.13740       -0.81626       -0.86918
N         -1.66187       -0.31506        1.45936
N         -2.02360       -2.19622       -0.39404
N         -0.68546        2.56578       -0.79520
H         -0.02197        1.86260       -1.12357
C         -0.05753        3.36018        0.26037
H          0.81615        3.94164       -0.06956
H         -0.78670        4.05747        0.68716
H          0.27838        2.68172        1.04881
H         -0.91596        3.15287       -1.59000
