33
1msa2eda_82.log	Energy: -655912.2837350
S         -0.94119        1.60236       -0.13350
O         -2.30122        1.37732       -0.66095
O          0.15517        1.41206       -1.09322
O         -0.72520        0.78334        1.12534
C         -0.86474        3.29913        0.41949
H         -1.01130        3.93895       -0.45116
H         -1.65364        3.46135        1.15399
H          0.11658        3.47188        0.86190
H         -3.24208       -2.55042       -0.31822
H         -2.89651       -0.86626       -0.85447
H         -1.33034       -2.68622       -1.84719
H         -0.54072       -1.32084       -1.06238
H         -0.42118       -4.03325       -0.23183
H          0.41622       -2.69436        0.33351
H         -1.68431       -2.11310        1.47760
H         -1.67164       -0.43991        1.13688
C         -2.51140       -1.73675       -0.32163
C         -1.16145       -2.20438       -0.87927
N         -2.26000       -1.34507        1.09217
N         -0.50723       -3.07938        0.09219
H         -3.11422       -1.21724        1.62714
H          2.99035       -1.72692       -0.91012
H          1.70346       -0.60931       -1.39078
H          3.82267        0.57671       -1.42855
H          2.77884        1.21952       -0.15437
H          5.07503       -0.56186        0.26522
H          4.82797        0.92507        0.89490
H          2.35047       -1.20168        1.38925
H          1.04106       -0.40094        0.83486
C          2.42175       -0.83912       -0.59888
C          3.37175        0.34818       -0.44998
N          1.68397       -1.16593        0.62101
N          4.35995        0.07711        0.59778
