33
1msa2eda_117.log	Energy: -655910.8690651
S          2.16070       -0.13797       -0.14961
O          2.48245        1.26241        0.18544
O          1.55190       -0.33118       -1.47735
O          1.31981       -0.77146        0.93879
H          0.03619        0.08291        1.22163
C          3.68780       -1.06237       -0.12220
H          4.33879       -0.65075       -0.89406
H          4.14091       -0.94988        0.86281
H          3.46172       -2.10847       -0.32915
H         -1.03275       -0.99392       -0.94700
H         -1.54646       -2.59063       -1.47235
H         -3.52419       -1.27156       -1.50559
H         -3.64694       -2.29019       -0.06555
H         -3.13651        0.57891       -0.20023
H         -4.13413       -0.25412        0.81285
H         -0.15221       -2.38713        0.65612
H         -1.56322       -2.03416        1.38544
C         -1.63461       -1.86992       -0.65194
C         -3.09387       -1.45771       -0.51313
N         -1.15983       -2.49952        0.57763
N         -3.22686       -0.27378        0.36029
H         -1.17591        2.81528        1.41508
H          0.54143        2.34700        1.22220
H         -0.06466        3.06822       -0.90077
H         -0.07337        1.32172       -1.01944
H         -2.43704        3.05174       -0.89121
H         -2.03553        1.94904       -2.01808
H         -0.80454        0.76620        2.49705
H         -1.68474        0.34272        1.13957
C         -0.48677        2.10852        0.94213
C         -0.60273        2.16934       -0.57440
N         -0.77272        0.74572        1.47958
N         -2.00204        2.14316       -1.02227
