31
1msa1dma1eda_48.log	Energy: -621181.2203442
S          2.16868       -0.18305        0.00057
O          2.14747        1.28169       -0.19247
O          1.73570       -0.93946       -1.21359
O          1.41027       -0.62733        1.20617
C          3.87272       -0.63382        0.28341
H          4.45109       -0.33249       -0.59030
H          4.21721       -0.10660        1.17329
H          3.92586       -1.71283        0.42887
H         -2.37371       -1.71594       -1.59053
H         -1.70069       -2.96877       -0.53975
H         -3.89609       -2.44612        0.29824
H         -2.72034       -1.80329        1.44591
H         -4.21338       -0.19921       -0.50020
H         -4.18139       -0.04659        1.12691
H         -0.05651       -1.20427       -0.97999
H         -1.03569        0.01335       -0.33853
C         -2.01734       -1.92279       -0.57682
C         -3.12625       -1.67211        0.43671
N         -0.85141       -1.06330       -0.32399
N         -3.62629       -0.30702        0.32046
H         -0.39187       -1.22396        0.58463
N         -0.81617        1.65134       -0.19789
C         -0.97972        1.93497        1.22636
C         -1.65861        2.48365       -1.04537
H          0.17311        1.77689       -0.43035
H         -1.99753        1.66601        1.52817
H         -0.26270        1.33112        1.78867
H         -0.80905        2.99528        1.46313
H         -2.70996        2.25538       -0.84048
H         -1.49857        3.55924       -0.87631
H         -1.45368        2.26581       -2.09715
