31
1msa1dma1eda_143.log	Energy: -621169.0298790
S          0.86861       -1.36047        0.02298
O          0.47086       -0.65075        1.24222
O          2.13744       -2.07798        0.05597
O          0.85059       -0.34252       -1.18398
H          1.42762        0.52240       -0.93742
C         -0.42650       -2.46347       -0.47456
H         -0.46206       -3.25029        0.28066
H         -1.37804       -1.91938       -0.51375
H         -0.15767       -2.88246       -1.44436
H         -3.67479        0.51679        1.52131
H         -2.13927       -0.37399        1.56684
H         -1.72538        1.90790        0.88122
H         -1.36813        0.80188       -0.45262
H         -3.75199        2.49766       -0.25184
H         -2.65149        2.43067       -1.46244
H         -3.97212       -1.56999        0.38626
H         -3.88024       -0.42177       -0.78471
C         -2.86956        0.09164        0.89714
C         -2.17915        1.22399        0.14839
N         -3.35291       -0.90241       -0.05995
N         -3.12604        1.87963       -0.75758
N          2.20774        1.71805       -0.47537
C          3.38109        1.22272        0.25800
C          1.31264        2.52004        0.36680
H          2.51590        2.26954       -1.27117
H          3.03870        0.57774        1.07068
H          3.99983        0.62094       -0.41012
H          3.97852        2.04213        0.67740
H          0.89571        1.86715        1.13819
H          1.83322        3.36140        0.84223
H          0.49013        2.90280       -0.24192
