31
1msa1dma1eda_133.log	Energy: -621170.1656561
S         -1.51285       -1.05519       -0.10362
O         -2.14452       -2.36673       -0.13600
O         -0.74694       -0.64729       -1.28600
O         -0.59877       -0.91103        1.16856
H          0.39441       -1.30085        1.00892
C         -2.73928        0.18049        0.24744
H         -3.45116        0.15496       -0.57888
H         -3.23333       -0.09124        1.18052
H         -2.25445        1.16017        0.32077
H          3.20942       -2.09217       -0.71671
H          1.51368       -1.95041       -1.24728
H          2.76088        0.10003       -1.80141
H          1.46166        0.40695       -0.65240
H          4.32035        0.34686       -0.02629
H          3.19923        1.46904        0.37386
H          1.81991       -2.77122        1.08448
H          2.39276       -1.26803        1.45744
C          2.25892       -1.56883       -0.54512
C          2.43705       -0.07164       -0.76607
N          1.77738       -1.78864        0.83084
N          3.35008        0.47654        0.23945
N         -0.81519        2.97235        0.24546
C         -0.41371        2.80380       -1.14464
C          0.19580        2.51591        1.18604
H         -1.03659        3.94503        0.42521
H         -0.35089        1.73592       -1.37800
H         -1.16904        3.24261       -1.80209
H          0.56187        3.26869       -1.37492
H          0.30477        1.42995        1.10630
H          1.18636        2.97962        1.02106
H         -0.12086        2.73746        2.20860
