33
1msa2eda_57.log	Energy: -655915.7264026
S         -2.32156       -0.39105       -0.01708
O         -2.34488        0.31099        1.28228
O         -1.49088       -1.61578       -0.02486
O         -1.96606        0.52901       -1.15264
H         -0.37756        0.77631       -1.31854
C         -3.99866       -0.90117       -0.35598
H         -4.30865       -1.58053        0.43842
H         -4.62887       -0.01177       -0.37013
H         -4.01638       -1.40457       -1.32266
H          2.19677        1.98281       -0.41997
H          1.02390        2.94521       -1.36755
H          0.66119        3.35305        1.00201
H         -0.73590        2.52635        0.31291
H          0.81694        1.64988        2.45176
H         -0.47044        0.89533        1.75163
H          0.99277        0.84496       -2.29765
H          1.05893       -0.01013       -0.86350
C          1.13850        2.11973       -0.65817
C          0.31448        2.39452        0.59771
N          0.68120        0.87173       -1.33011
N          0.44099        1.31787        1.57341
H          4.17698       -2.14477       -0.12576
H          4.55112       -0.90742        1.07549
H          2.49565       -2.14522        1.64009
H          2.18610       -0.40691        1.42273
H          1.60968       -2.40430       -0.63958
H          0.50345       -1.62353        0.26432
H          4.81949        0.11528       -0.98255
H          3.40421       -0.43181       -1.56941
C          3.84548       -1.17465        0.28269
C          2.46272       -1.32888        0.90400
N          3.86420       -0.10795       -0.72449
N          1.44575       -1.54058       -0.12862
