28
1msa1ma1eda_30.log	Energy: -596523.2955176
S         -1.59133       -0.12780       -0.03542
O         -0.97476       -0.04489        1.30316
O         -0.86533       -1.11287       -0.91468
O         -1.75986        1.18183       -0.70422
C         -3.22426       -0.81786        0.16953
H         -3.12513       -1.79165        0.64927
H         -3.79922       -0.13684        0.79749
H         -3.68247       -0.91539       -0.81463
H          3.11184       -1.45474       -1.14139
H          3.42780        0.13481       -0.39401
H          3.05796       -1.41102        1.37845
H          1.58027       -0.43541        1.29136
H          1.34461       -2.94124        1.43675
H          0.50544       -2.25285        0.22095
H          1.80793        0.05074       -2.32839
H          0.65789       -0.55831       -1.26545
C          2.67531       -0.64264       -0.55597
C          2.17244       -1.20232        0.76953
N          1.56942       -0.02617       -1.34235
N          1.44816       -2.44942        0.55652
H          1.35140        0.96781       -0.97360
N          0.86531        2.44602       -0.33616
H          1.16380        3.28630       -0.82140
C          1.09981        2.56883        1.11037
H          0.68992        3.49349        1.53319
H          0.61410        1.72434        1.60519
H          2.17401        2.53719        1.31718
H         -0.13932        2.32590       -0.50505
