29
1msa2dma_35.log	Energy: -586434.3790485
S          1.61753       -0.49614        0.00076
O          0.90117       -0.82517       -1.24359
O          0.89005       -0.83138        1.23698
O          2.05619        0.96078        0.00634
H          0.90333        1.82053        0.00240
C          3.15020       -1.40631        0.00532
H          2.90133       -2.46787        0.00042
H          3.71181       -1.13816       -0.88943
H          3.70286       -1.14431        0.90741
N         -3.11840       -0.69407       -0.00491
C         -2.61827       -1.34416       -1.21146
C         -2.63287       -1.33579        1.21199
H         -2.83552        0.27948       -0.00641
H         -3.05338       -2.34723       -1.27972
H         -2.95081       -0.78581       -2.09259
H         -1.52145       -1.44426       -1.24251
H         -3.06661       -2.33941        1.28063
H         -1.53632       -1.43338        1.25757
H         -2.97812       -0.77287        2.08528
N         -0.07611        2.35416       -0.00009
C         -0.78850        1.96747        1.24181
C         -0.78282        1.96769       -1.24527
H          0.10212        3.35643        0.00030
H         -0.80151        0.87699        1.30120
H         -0.23047        2.34779        2.09749
H         -1.80053        2.37852        1.23629
H         -0.79885        0.87722       -1.30336
H         -1.79364        2.38175       -1.24591
H         -0.21890        2.34496       -2.09843
