28
1msa1ma1eda_116.log	Energy: -596514.2544998
S         -0.44979       -1.11825        0.08975
O          0.62162       -2.12616        0.00604
O         -0.66315       -0.36432       -1.17244
O         -0.22888       -0.14776        1.22967
H          0.51242        1.04222        0.56239
C         -1.97172       -1.95523        0.47922
H         -2.76983       -1.20953        0.49661
H         -2.15074       -2.69534       -0.30145
H         -1.85280       -2.43972        1.44849
H          3.14664        2.32529       -0.12247
H          2.53240        1.96462        1.51527
H          4.11533        0.17914        0.61140
H          2.51431       -0.44320        1.03419
H          3.66899       -0.41568       -1.55555
H          2.25379       -1.10946       -1.03660
H          0.76442        2.59581       -0.14246
H          1.15305        1.18808       -0.96620
C          2.54352        1.63548        0.47392
C          3.05670        0.19667        0.33137
N          1.15421        1.66189       -0.04742
N          2.81874       -0.26241       -1.03138
N         -3.30364        1.05751       -0.62574
H         -2.54776        0.61295       -1.14287
C         -2.76636        2.07692        0.26595
H         -2.23323        2.90125       -0.24180
H         -3.57612        2.52181        0.85258
H         -2.07353        1.60066        0.96624
H         -3.95543        1.45698       -1.29086
