29
1msa2dma_01.log	Energy: -586452.0285380
S          1.72674       -0.12576       -0.10128
O          1.27332       -1.31422       -0.85783
O          1.26250       -0.11019        1.30537
O          1.38694        1.15990       -0.79951
C          3.51020       -0.18704       -0.07126
H          3.80514       -1.10664        0.43461
H          3.86931       -0.18162       -1.10055
H          3.87385        0.68634        0.47014
N         -1.18311        1.43896       -0.05097
C         -1.23039        1.92222        1.34179
C         -2.06979        2.14755       -0.98558
H         -0.18231        1.47195       -0.39033
H         -2.22994        1.75983        1.75195
H         -0.48579        1.35928        1.90726
H         -0.98966        2.98718        1.37034
H         -3.10845        2.03277       -0.66700
H         -1.81197        3.20821       -1.01427
H         -1.94380        1.71868       -1.98063
H         -1.41378        0.38083       -0.06498
N         -1.58960       -1.28286       -0.09236
C         -2.64826       -1.81734       -0.94088
C         -1.64899       -1.77173        1.28493
H         -0.67131       -1.52541       -0.47930
H         -3.62278       -1.46450       -0.58464
H         -2.50790       -1.46733       -1.96711
H         -2.66908       -2.91716       -0.95012
H         -2.55018       -1.38583        1.77565
H         -1.67488       -2.86993        1.33830
H         -0.76418       -1.41306        1.81627
