31
1msa1dma1eda_23.log	Energy: -621183.5060023
S         -0.85501        1.41702       -0.15785
O         -2.06744        0.76772       -0.70226
O          0.29467        1.40121       -1.09725
O         -0.47782        0.87401        1.18512
C         -1.26304        3.13307        0.11825
H         -1.54837        3.57071       -0.83856
H         -2.09150        3.17579        0.82544
H         -0.38337        3.63327        0.52373
H         -0.43950       -1.23825       -1.18681
H          0.31827       -2.83903       -1.07234
H         -2.18841       -2.90366       -1.28522
H         -1.58081       -3.74981        0.14376
H         -2.61028       -0.99260        0.23961
H         -3.36079       -2.33880        0.84172
H          1.28379       -1.27878        0.45986
H         -0.21229       -0.87850        1.09259
C         -0.34451       -2.13244       -0.56601
C         -1.71165       -2.75527       -0.30341
N          0.30984       -1.69184        0.69215
N         -2.46147       -1.92729        0.62521
H          0.34906       -2.43674        1.38395
N          2.48606       -0.23370       -0.04774
C          3.58563       -0.71325       -0.87666
C          2.93145        0.51496        1.12709
H          1.87394        0.38383       -0.59352
H          4.17961       -1.44536       -0.31884
H          3.18603       -1.20136       -1.76948
H          4.25814        0.09647       -1.19640
H          3.48250       -0.14778        1.80383
H          3.58918        1.35517        0.86104
H          2.05142        0.90695        1.64352
