26
1msa1ma1dma_64.log	Energy: -561766.4922694
S         -1.75017       -0.09468       -0.05432
O         -1.39373        1.32052       -0.09796
O         -1.58452       -0.91405       -1.23495
O         -3.31629       -0.14890        0.39223
H         -3.68321        0.74034        0.28448
C         -0.98822       -0.88505        1.33119
H          0.08977       -0.93223        1.09188
H         -1.18418       -0.28482        2.21953
H         -1.41715       -1.88320        1.42478
N          1.95782       -0.92148        0.07311
C          1.81977       -2.01573       -0.87593
C          3.20727       -0.96952        0.81250
H          1.89617       -0.02798       -0.42411
H          1.77970       -2.97101       -0.33837
H          0.88386       -1.90124       -1.42948
H          2.65174       -2.07388       -1.59883
H          3.23124       -1.86146        1.45017
H          4.10036       -0.99931        0.16360
H          3.28536       -0.09117        1.46027
N          1.50968        1.94341       -0.88679
H          1.91540        2.50515       -1.62674
C          1.73219        2.55635        0.42136
H          1.27170        3.54641        0.54563
H          1.32166        1.89676        1.19177
H          2.80698        2.65103        0.60278
H          0.51106        1.87114       -1.06186
