31
1msa1dma1eda_153.log	Energy: -621166.9817647
S         -0.26933       -0.81862        0.09481
O         -1.25578       -1.88064        0.17309
O         -0.06511       -0.14162       -1.19077
O          1.12909       -1.36536        0.58893
H          1.89924       -1.12323       -0.11133
C         -0.65799        0.40613        1.32072
H         -1.64457        0.81693        1.06326
H         -0.68288       -0.08705        2.29308
H          0.11350        1.17715        1.29215
H          2.16813        1.73387       -0.24626
H          3.77943        2.33131        0.16100
H          4.10837        0.96927       -1.73078
H          4.66472        0.00269       -0.34803
H          2.13984       -0.31706       -1.82115
H          3.33866       -1.41824       -1.61701
H          2.87770        1.61250        2.17760
H          2.44653        0.13983        1.59687
C          3.15426        1.43282        0.14863
C          3.78482        0.44206       -0.82486
N          3.11855        0.89522        1.50402
N          2.85026       -0.64935       -1.16805
N         -3.66307        1.11247        0.15150
C         -4.28477       -0.18214        0.40785
C         -3.35545        1.31535       -1.25920
H         -4.27616        1.85330        0.47398
H         -3.57413       -0.97617        0.15960
H         -4.52585       -0.26985        1.47108
H         -5.20651       -0.34679       -0.17565
H         -2.60118        0.58799       -1.57438
H         -4.23382        1.20531       -1.91794
H         -2.93274        2.31350       -1.40421
