33
1msa2eda_65.log	Energy: -655913.3898460
S          2.03106       -0.31635        0.00958
O          1.78038       -1.51626       -0.80632
O          1.19878       -0.23310        1.23551
O          1.93169        0.95646       -0.78427
H          0.40535        1.30781       -1.06050
C          3.73323       -0.38722        0.54445
H          3.86076       -1.29425        1.13586
H          4.36697       -0.41502       -0.34223
H          3.94290        0.49938        1.14286
H         -2.16380        1.09486        0.70418
H         -2.45010        2.80740        1.00751
H         -2.36480        2.49724       -1.35391
H         -0.90367        3.39723       -0.85937
H         -1.06621        0.45830       -1.42559
H         -0.43862        1.63505       -2.44374
H         -0.74238        2.34563        2.45101
H          0.12913        1.44462        1.39856
C         -1.69641        2.09282        0.65989
C         -1.42312        2.43839       -0.79912
N         -0.50220        2.24505        1.47239
N         -0.58106        1.40852       -1.46101
H         -1.99452       -3.05309       -0.85389
H         -0.41767       -2.22069       -0.87322
H         -1.20962       -2.61104        1.42423
H         -0.99965       -0.90722        1.07710
H         -3.57780       -2.31604        1.20678
H         -3.09357       -1.02030        2.06788
H         -2.16654       -1.30840       -2.40543
H         -2.96481       -0.79590       -1.06487
C         -1.47912       -2.10462       -0.63737
C         -1.62105       -1.77574        0.84211
N         -2.04069       -1.00334       -1.44475
N         -3.02124       -1.46774        1.16114
