33
1msa2eda_31.log	Energy: -655917.6063143
S          2.10942       -0.33341       -0.05596
O          1.29642       -0.34666       -1.29307
O          1.84785       -1.48201        0.83761
O          1.98826        0.97926        0.66820
H          0.47991        1.12469        1.22613
C          3.81944       -0.43534       -0.55151
H          3.95739       -1.37949       -1.07881
H          4.03832        0.40844       -1.20592
H          4.43656       -0.40165        0.34638
H         -3.73351       -2.28489        0.28836
H         -3.49702       -1.97967       -1.42128
H         -1.52499       -3.06898       -0.46422
H         -1.11260       -1.47111       -1.08695
H         -1.56137       -2.05806        1.74439
H         -0.11850       -1.77207        1.01429
H         -3.46496       -0.03869        0.76331
H         -2.88954        0.33040       -0.72750
C         -3.16574       -1.67040       -0.42308
C         -1.67328       -1.99118       -0.30521
N         -3.53843       -0.27577       -0.22041
N         -1.11900       -1.54869        0.98276
H         -2.30231        2.17191        0.88696
H         -0.95925        3.20174        1.43705
H         -1.27196        3.42394       -0.96269
H          0.31520        2.72910       -0.60178
H         -1.28691        1.68795       -2.39216
H         -0.33969        0.72522       -1.47472
H         -0.64737        1.16435        2.47574
H         -0.94115        0.18517        1.15881
C         -1.22079        2.32217        0.84185
C         -0.76443        2.52478       -0.59972
N         -0.55893        1.14301        1.46191
N         -1.12055        1.38591       -1.43940
