33
1msa2eda_64.log	Energy: -655915.4474056
S          2.00181       -0.34569       -0.18804
O          2.10933        0.69094       -1.22369
O          0.95152       -1.36293       -0.44965
O          1.84391        0.23376        1.19400
C          3.55595       -1.22142       -0.13854
H          3.71108       -1.67734       -1.11669
H          4.34390       -0.50044        0.07959
H          3.50007       -1.98346        0.63863
H         -1.19907        3.40739        1.10970
H          0.54732        3.18066        0.81656
H         -0.65293        3.33922       -1.33212
H          0.02072        1.72774       -1.13919
H         -2.78285        2.44501       -1.12575
H         -2.07106        0.98718       -1.48387
H         -0.59837        1.64570        2.49248
H         -1.20768        0.81860        1.19922
C         -0.44209        2.73099        0.70345
C         -0.74749        2.40874       -0.75787
N         -0.46144        1.47461        1.49923
N         -2.06074        1.79066       -0.85416
H          0.46785        0.94994        1.38895
H         -2.08857       -3.11191        0.46027
H         -3.26279       -2.22254        1.44642
H         -3.76668       -1.86569       -0.90895
H         -3.27339       -0.36442       -0.12451
H         -0.96828       -1.04156       -1.15996
H         -1.89842       -1.89786       -2.17566
H         -1.21111       -1.74069        2.36796
H         -0.47748       -1.47236        0.94216
C         -2.42039       -2.10392        0.75487
C         -2.91041       -1.33964       -0.47242
N         -1.36180       -1.35036        1.44296
N         -1.91782       -1.11987       -1.52642
