26
1msa1ma1dma_43.log	Energy: -561775.5196909
S          0.65011       -1.29142        0.13581
O          0.32166       -2.71031        0.15444
O          0.52907       -0.55341        1.39631
O         -0.20374       -0.54693       -0.96565
H         -1.13621       -0.26054       -0.54468
C          2.28100       -1.07238       -0.52802
H          2.96078       -1.59371        0.14763
H          2.30536       -1.53137       -1.51654
H          2.50995       -0.00170       -0.56847
N         -2.43067        0.16476        0.10856
C         -3.49934        0.32886       -0.87850
C         -2.16257        1.37577        0.89036
H         -2.66576       -0.59369        0.74425
H         -3.18785        1.07263       -1.61683
H         -3.66439       -0.61909       -1.39456
H         -4.44143        0.66183       -0.42327
H         -1.80990        2.15972        0.21402
H         -3.05684        1.73919        1.41327
H         -1.37231        1.15777        1.61113
N          2.68538        2.27243       -0.27803
H          3.22318        2.44263        0.56484
C          1.26220        2.51810       -0.04137
H          1.01930        3.55098        0.25009
H          0.70381        2.27151       -0.94905
H          0.91500        1.83850        0.74074
H          3.04882        2.89080       -0.99487
