31
1msa1dma1eda_45.log	Energy: -621181.2502770
S         -1.67051       -0.92796        0.00070
O         -0.82581       -0.64160       -1.21064
O         -2.67938        0.12560        0.23636
O         -0.81681       -1.21965        1.17522
H          0.38457        1.07878        0.94098
C         -2.57130       -2.41887       -0.39084
H         -1.85184       -3.21318       -0.59051
H         -3.19425       -2.66927        0.46832
H         -3.18672       -2.22415       -1.26923
H         -1.26692        2.23202       -1.18774
H         -0.76864        3.88451       -0.79880
H          1.14978        2.38127       -1.57356
H          1.40706        3.08243        0.04636
H          0.32371        0.36782       -0.54902
H          1.83547        0.66342        0.18162
H         -1.53411        3.48706        1.30306
H         -1.92052        1.92452        0.89348
C         -0.69302        2.84001       -0.47950
C          0.77892        2.41168       -0.54625
N         -1.19122        2.63779        0.87676
N          0.87271        1.05689        0.03465
N          3.13402       -0.57810        0.48343
C          4.41804       -0.41077       -0.19155
C          2.40893       -1.77820        0.04830
H          3.28863       -0.63680        1.48557
H          4.24340       -0.24823       -1.25975
H          4.93461        0.46640        0.20657
H          5.07634       -1.28643       -0.08690
H          2.16897       -1.68271       -1.01526
H          2.99410       -2.69834        0.18989
H          1.46255       -1.85569        0.59139
