32
1msa1dma1tma_02.log	Energy: -611107.7692709
S          2.20668       -0.34009        0.08464
O          2.34793       -0.74151        1.48925
O          2.42594        1.09959       -0.18604
O          0.87931       -0.77076       -0.50429
H         -0.00215        0.53344       -0.26983
C          3.43449       -1.24173       -0.84955
H          4.41573       -0.94656       -0.47664
H          3.27002       -2.30755       -0.68972
H          3.32877       -0.98608       -1.90385
N         -0.64752        1.35092       -0.04082
C         -0.51497        2.35878       -1.10724
C         -0.29947        1.85003        1.30597
H         -1.59477        0.89692       -0.02824
H          0.53731        2.64011       -1.17641
H         -0.83395        1.91444       -2.05107
H         -1.13366        3.22933       -0.87831
H          0.72147        2.23302        1.27938
H         -1.00524        2.62925        1.60202
H         -0.33931        1.01548        2.00703
N         -2.74137       -0.51874       -0.01527
C         -2.16114       -1.36585        1.02969
H         -1.08780       -1.48516        0.85183
H         -2.31040       -0.89616        2.00660
H         -2.62948       -2.36371        1.05063
C         -4.16267       -0.29132        0.21251
H         -4.31038        0.17855        1.18901
H         -4.55960        0.37733       -0.55693
H         -4.74021       -1.23125        0.18860
C         -2.50098       -1.10304       -1.33462
H         -2.88796       -0.43350       -2.10928
H         -1.42562       -1.23852       -1.48308
H         -2.99446       -2.08298       -1.44535
