28
1msa1ma1eda_182.log	Energy: -596509.1492133
S         -1.69986       -0.08197       -0.07333
O         -1.74480        1.16750       -0.82920
O         -1.36514        0.04247        1.36990
O         -0.78416       -1.12207       -0.70337
H          0.28420       -1.42184        0.32413
C         -3.32827       -0.80556       -0.16862
H         -4.03023       -0.10008        0.27683
H         -3.56239       -0.96499       -1.22127
H         -3.32938       -1.74932        0.37665
H          2.61911       -2.39613       -0.63700
H          3.83380       -1.11844       -0.57220
H          2.99470       -1.27231        1.64853
H          2.24857        0.18316        0.95217
H          0.97798       -2.38431        1.56024
H          0.40220       -0.83946        1.82860
H          2.51667       -0.62903       -2.43693
H          1.09947       -0.68837       -1.59851
C          2.75745       -1.30658       -0.51449
C          2.30590       -0.90393        0.88488
N          2.09792       -0.49631       -1.52468
N          0.94552       -1.43760        1.18913
N          1.11147        2.51400       -0.58320
H          0.13718        2.38430       -0.84332
C          1.21739        2.64118        0.86264
H          0.73855        1.82885        1.43954
H          2.27341        2.70414        1.15220
H          0.74374        3.57275        1.18684
H          1.60383        1.68813       -0.91703
