34
1msa1eda1tma_32.log	Energy: -645838.4931615
S         -1.67280       -0.99344       -0.14733
O         -0.69348       -1.96638       -0.64298
O         -2.21750       -0.06142       -1.15822
O         -1.13460       -0.21034        1.03805
C         -3.05211       -1.91223        0.51659
H         -3.48966       -2.48553       -0.30125
H         -2.67812       -2.57897        1.29365
H         -3.77683       -1.20693        0.92317
H          1.77682       -1.17767       -1.18269
H          3.21049       -2.20867       -1.20621
H          2.03399       -2.54772        0.86637
H          3.56726       -1.71847        1.21168
H          0.87963       -0.59209        1.29237
H          2.06608       -0.49726        2.40043
H          3.69855        0.13839       -1.86333
H          3.40821        0.56514       -0.29698
C          2.77122       -1.32400       -0.73256
C          2.58001       -1.60278        0.75094
N          3.68814       -0.19705       -0.90709
N          1.88847       -0.47836        1.40157
N         -0.23441        2.06837        0.09447
C          0.69039        2.66422        1.08495
H          0.14146        2.85989        2.00727
H          1.48611        1.93867        1.27488
H          1.09647        3.59816        0.68766
C          0.46836        1.71646       -1.16473
H          1.28920        1.04257       -0.91765
H         -0.24013        1.20793       -1.81960
H          0.85059        2.62945       -1.62869
C         -1.43077        2.90224       -0.16347
H         -2.09798        2.33076       -0.81039
H         -1.92782        3.10424        0.78619
H         -1.12706        3.83994       -0.63560
H         -0.59587        1.14410        0.50835
