31
1msa1dma1eda_144.log	Energy: -621169.8529154
S         -0.47389       -0.81020       -0.05811
O         -1.34266       -1.62236       -0.90869
O         -0.25168        0.58782       -0.54779
O          0.86549       -1.45529        0.22704
H          1.97068       -0.56021       -0.42189
C         -1.26958       -0.65480        1.53003
H         -2.24112       -0.16865        1.38163
H         -1.39658       -1.65842        1.93801
H         -0.63083       -0.05555        2.18027
H          3.24878        2.07825        0.13577
H          2.35414        1.00311        1.23051
H          4.82267        0.77708        1.59306
H          4.11447       -0.72891        1.00066
H          5.72538        1.13468       -0.57845
H          5.86160       -0.49009       -0.44835
H          1.55085        0.85232       -1.05388
H          3.09515        0.23093       -1.50000
C          3.05682        1.03327        0.39580
C          4.35353        0.30214        0.72158
N          2.41237        0.36496       -0.75229
N          5.19822        0.27455       -0.47252
N         -4.11822        0.82688        0.50357
C         -4.50690       -0.25824       -0.38982
C         -3.46034        1.92176       -0.19837
H         -4.93617        1.17688        0.99023
H         -3.60893       -0.71376       -0.81904
H         -5.03503       -1.02934        0.17863
H         -5.15677        0.07274       -1.21907
H         -2.51081        1.56784       -0.61267
H         -4.06488        2.33614       -1.02471
H         -3.23746        2.72725        0.50790
