23
1msa1a1dma_02.log	Energy: -537128.2436880
S         -1.32342       -0.09853        0.01339
O         -1.77757        1.29724        0.09906
O         -0.53900       -0.54578        1.21175
O         -0.57324       -0.41206       -1.24133
C         -2.78892       -1.11644       -0.01112
H         -3.33595       -0.93772        0.91474
H         -3.38714       -0.82276       -0.87399
H         -2.48851       -2.16148       -0.08713
N          1.83181       -0.60468       -0.01344
C          2.92367        0.37616        0.15524
C          2.24941       -2.01627       -0.11160
H          1.10580       -0.52006        0.74357
H          3.62611        0.27775       -0.67510
H          2.46953        1.37357        0.16055
H          3.43789        0.17442        1.09681
H          2.91100       -2.14219       -0.97015
H          2.77126       -2.30188        0.80295
H          1.35557       -2.62744       -0.23595
H          1.22085       -0.37572       -0.82379
N          0.83377        2.89408       -0.08282
H          0.83481        3.36113       -0.98446
H          0.89353        3.62043        0.62406
H         -0.08569        2.45661        0.01656
