23
1msa1a1dma_10.log	Energy: -537118.6992910
S         -0.90770       -0.63648       -0.13425
O         -0.05237       -0.74222       -1.30635
O         -2.25769       -1.19605       -0.20087
O         -1.02244        0.88872        0.29207
H         -2.00038        1.20486        0.21078
C         -0.04079       -1.31975        1.25616
H          0.06674       -2.38836        1.06427
H          0.94220       -0.83737        1.29837
H         -0.63108       -1.14497        2.15518
N          2.63313        0.18508        0.03380
C          4.02378       -0.20172       -0.12890
C          2.45566        1.62538        0.13609
H          2.07961       -0.16270       -0.74474
H          4.58488        0.06060        0.77524
H          4.09490       -1.28446       -0.26475
H          4.52017        0.28860       -0.98518
H          2.92962        1.98804        1.05546
H          2.89630        2.18095       -0.71052
H          1.38894        1.85736        0.18702
N         -3.56994        1.49130        0.01961
H         -3.79711        2.03111       -0.80923
H         -4.07004        1.89153        0.80638
H         -3.89573        0.53682       -0.12305
