29
1msa1ma1tma_08.log	Energy: -586445.0495754
S          1.55513        0.49794       -0.04764
O          1.80997       -0.48550       -1.11136
O          1.15031       -0.08125        1.25194
O          0.57453        1.56721       -0.47761
H         -0.83579        1.12526       -0.17977
C          3.08182        1.38342        0.22225
H          3.83158        0.65944        0.54224
H          3.37687        1.85123       -0.71711
H          2.91647        2.13401        0.99519
N         -0.23989       -2.49697       -0.01816
H          0.40420       -2.22785       -0.76023
C         -0.38581       -3.94831        0.04531
H          0.55896       -4.49263        0.19095
H         -1.05839       -4.21631        0.86633
H         -0.84276       -4.31264       -0.88007
H          0.21407       -2.13870        0.81945
N         -1.88699        0.90912       -0.01880
C         -2.03130        0.35728        1.34865
H         -1.46096       -0.56893        1.40151
H         -1.61984        1.07180        2.06174
H         -3.09030        0.17560        1.55189
C         -2.58668        2.20037       -0.17710
H         -2.20113        2.90479        0.56096
H         -2.39029        2.58692       -1.17775
H         -3.66094        2.05756       -0.03405
C         -2.28987       -0.08027       -1.04847
H         -2.03961        0.32201       -2.03108
H         -1.73624       -1.00794       -0.86228
H         -3.36726       -0.25432       -0.97449
