28
1msa1ma1eda_103.log	Energy: -596514.4229416
S          1.75852       -0.89309       -0.02215
O          0.78259       -0.53005       -1.11061
O          2.19867       -2.28612       -0.05906
O          1.21413       -0.44768        1.30170
C          3.19329        0.12844       -0.32444
H          3.59468       -0.13636       -1.30293
H          2.89453        1.17736       -0.30092
H          3.92416       -0.08056        0.45722
H         -2.85808        0.29923        1.60136
H         -1.95957        1.32676        0.44323
H         -4.29527        0.81562       -0.37978
H         -3.06144        0.14676       -1.44881
H         -4.69535       -1.38298        0.43392
H         -4.36658       -1.69700       -1.13774
H         -0.63974       -0.61268        1.21285
H         -1.81151       -1.60194        0.47376
C         -2.43902        0.35397        0.59214
C         -3.50644        0.05586       -0.45256
N         -1.37875       -0.67402        0.48537
N         -3.97993       -1.31832       -0.28206
H         -0.78160       -0.57551       -0.37590
N          0.10661        2.25873        0.04325
H          0.59276        1.82303        0.82371
C          0.49071        3.65934       -0.10386
H          1.56789        3.82382       -0.25814
H         -0.03910        4.09622       -0.95530
H          0.19119        4.21652        0.78860
H          0.37694        1.71165       -0.77077
