23
1msa1a1dma_09.log	Energy: -537122.4579604
S         -0.67741       -0.55433        0.24494
O         -1.31486        0.01113        1.43888
O          0.44698       -1.48144        0.50372
O         -0.21706        0.53692       -0.71967
H          1.19210        0.73790       -0.56626
C         -1.92728       -1.44068       -0.66392
H         -1.47302       -1.85398       -1.56451
H         -2.29557       -2.23756       -0.01687
H         -2.72283       -0.73165       -0.90548
N          2.29023        0.83416       -0.38896
C          2.95794       -0.32674       -1.02020
C          2.50212        0.91431        1.07603
H          2.59764        1.69875       -0.83043
H          2.50773       -1.22520       -0.59537
H          2.76882       -0.29857       -2.09377
H          4.03219       -0.29461       -0.82530
H          2.11052       -0.00463        1.51473
H          3.56602        1.02907        1.29418
H          1.93883        1.76292        1.46505
N         -3.24405        1.62055       -0.47205
H         -3.84407        2.43735       -0.47781
H         -2.36334        1.86218       -0.91706
H         -3.01687        1.39019        0.49221
