23
1msa1a1dma_05.log	Energy: -537127.1899315
S         -1.36870       -0.10598        0.04865
O         -1.42851        0.99952        1.01924
O         -1.03328       -1.42643        0.62845
O         -0.43341        0.20302       -1.09872
H          0.94894       -0.32321       -0.52090
C         -2.98450       -0.24826       -0.69538
H         -3.69547       -0.48466        0.09671
H         -3.23175        0.70648       -1.15984
H         -2.95520       -1.04525       -1.43813
N          1.79935       -0.86937       -0.16148
C          1.98616       -0.62987        1.29142
C          2.97567       -0.51284       -0.98023
H          1.52422       -1.84182       -0.30309
H          2.19270        0.43250        1.41914
H          1.05719       -0.89847        1.79459
H          2.81713       -1.24050        1.65101
H          3.15661        0.55268       -0.83178
H          3.84164       -1.09787       -0.66419
H          2.75181       -0.70834       -2.02942
N          1.30784        2.31335        0.04338
H          1.62656        3.27065        0.15380
H          0.51797        2.17505        0.67532
H          0.89424        2.22762       -0.88158
