31
1msa1dma1eda_112.log	Energy: -621170.4286083
S          0.15153       -0.88058       -0.07215
O         -0.98235       -1.81112       -0.05833
O          0.70826       -0.50735        1.22767
O         -0.22855        0.40704       -0.87987
H         -1.00444        0.98753       -0.35087
C          1.43349       -1.54947       -1.09845
H          1.73215       -2.49407       -0.64121
H          1.01922       -1.71894       -2.09216
H          2.27060       -0.84078       -1.11192
H         -4.13930        2.05553        0.17896
H         -3.26582        1.91711       -1.36534
H         -4.68542       -0.10963       -0.81182
H         -2.97970       -0.48177       -1.07571
H         -4.42822       -0.92670        1.29504
H         -2.85289       -1.29428        0.94903
H         -1.83342        2.65069        0.49746
H         -2.14392        1.21010        1.24198
C         -3.34879        1.51093       -0.35261
C         -3.67919        0.01604       -0.39652
N         -2.05451        1.67322        0.33338
N         -3.55559       -0.56086        0.94040
N          3.84832        0.57576       -0.36220
C          4.14860       -0.09637        0.89584
C          3.13059        1.82832       -0.16608
H          4.70740        0.75018       -0.87216
H          3.20715       -0.35878        1.38851
H          4.70104       -1.01964        0.69774
H          4.73995        0.52285        1.59220
H          2.16356        1.61252        0.29768
H          3.66882        2.54313        0.48072
H          2.94414        2.30212       -1.13369
