31
1msa1dma1eda_91.log	Energy: -621175.4663196
S         -2.00982       -0.40953       -0.00395
O         -1.96011       -0.81775        1.40469
O         -0.81832       -0.80952       -0.79512
O         -2.28423        1.06680       -0.17615
H         -1.02035        1.88771       -0.02828
C         -3.41929       -1.20726       -0.75314
H         -3.27830       -2.28433       -0.65955
H         -4.31403       -0.89017       -0.21716
H         -3.46954       -0.91324       -1.80141
H          2.29877       -0.45419       -1.49521
H          3.96046       -1.02161       -1.51091
H          2.44612       -2.76336       -0.63994
H          3.55153       -2.23346        0.64112
H          0.73917       -1.43505        0.36055
H          1.45628       -2.16311        1.63782
H          3.00141        0.42610        0.79586
H          4.51824        0.36645        0.20258
C          3.14022       -0.72962       -0.84702
C          2.70688       -1.91778        0.01574
N          3.54287        0.44387       -0.06667
N          1.61171       -1.49913        0.88846
N         -0.03671        2.33069        0.09426
C          0.75985        1.99080       -1.11444
C          0.53046        1.79459        1.35783
H         -0.15032        3.33916        0.17251
H          0.56761        0.93784       -1.32734
H          0.40818        2.60072       -1.94707
H          1.82393        2.14762       -0.92410
H          0.70579        0.72266        1.23732
H          1.47238        2.30155        1.57487
H         -0.19275        1.95261        2.15802
