33
1msa2eda_61.log	Energy: -655915.3842468
S          2.48621       -0.12913       -0.01778
O          1.80588        0.43784       -1.20624
O          2.21297       -1.57153        0.17946
O          2.20446        0.68215        1.21236
C          4.24457        0.02341       -0.28650
H          4.50029       -0.55101       -1.17728
H          4.47834        1.07874       -0.42742
H          4.75788       -0.37409        0.58910
H         -0.48620        3.12179        0.44996
H          0.11634        2.11419       -0.89051
H         -2.26379        3.02981       -1.24652
H         -2.10801        1.28779       -1.37907
H         -3.54494        2.73076        0.64509
H         -3.69187        1.15722        0.16039
H         -1.12097        1.12470        1.56824
H         -0.58256        0.13620        0.32056
C         -0.64293        2.19559       -0.10980
C         -2.06277        2.11973       -0.66907
N         -0.43192        1.06375        0.81768
N         -3.03187        1.89308        0.40308
H          0.56269        1.02813        1.16505
H         -1.90037       -3.26223       -0.43780
H         -1.25110       -2.81060        1.14028
H         -3.67317       -2.32331        1.03913
H         -2.72310       -0.86324        1.27531
H         -2.94684       -0.66546       -1.24864
H         -4.19351       -1.70295       -1.10014
H          0.28042       -1.78609       -0.17641
H         -0.74269       -1.47738       -1.39393
C         -1.67325       -2.40634        0.21446
C         -2.96080       -1.65126        0.55006
N         -0.68376       -1.50145       -0.38092
N         -3.63269       -1.02697       -0.59275
