31
1msa1dma1eda_113.log	Energy: -621172.5319121
S          0.29358       -0.92987       -0.24027
O         -0.54577       -0.56163       -1.38933
O          0.50237        0.20596        0.72327
O          1.62189       -1.51247       -0.63042
H          2.83354       -0.39671       -0.25054
C         -0.56443       -2.19873        0.66350
H         -1.56578       -1.81560        0.88483
H         -0.62684       -3.07528        0.01721
H          0.00141       -2.42508        1.56740
H         -4.69260        0.99916       -0.25715
H         -4.49912        0.36719        1.39391
H         -3.28199        2.42163        1.16505
H         -2.12288        1.09313        1.38006
H         -1.65952        2.77371       -0.42377
H         -1.62632        1.23450       -0.93664
H         -4.22402       -1.37162       -0.25591
H         -2.90932       -0.62535       -0.87089
C         -3.97821        0.54110        0.44462
C         -2.85053        1.53738        0.68188
N         -3.45957       -0.74664       -0.02290
N         -2.24541        1.96124       -0.58095
N          3.06695        0.53846        0.17696
C          3.27338        1.53328       -0.89333
C          4.15101        0.44003        1.16815
H          2.12902        0.69776        0.62882
H          4.17587        1.28390       -1.45380
H          2.40794        1.50480       -1.55640
H          3.37165        2.52687       -0.45306
H          5.07796        0.15257        0.66907
H          4.28365        1.40395        1.66242
H          3.88105       -0.31636        1.90506
