23
1msa2ma_38.log	Energy: -537107.1842638
S         -1.44876       -0.24967       -0.04693
O         -0.70807       -0.20256       -1.29262
O         -1.10234       -1.24375        0.96084
O         -3.01935       -0.49224       -0.40809
H         -3.28031       -1.34172       -0.02441
C         -1.52035        1.36921        0.65887
H         -0.47430        1.64622        0.87914
H         -1.95548        2.03862       -0.08380
H         -2.13042        1.32369        1.56063
N          1.64655        1.78922        0.71927
H          2.26024        2.27292        1.36593
C          1.81432        2.30652       -0.63782
H          2.83532        2.21508       -1.03743
H          1.14451        1.75821       -1.30753
H          1.53008        3.36328       -0.67519
H          1.89556        0.79460        0.72939
N          1.97349       -1.20167        0.11172
H          1.32798       -1.69932        0.71744
C          3.22466       -1.93438       -0.05705
H          3.11189       -2.93382       -0.50222
H          3.89945       -1.35455       -0.69361
H          3.71225       -2.05003        0.91515
H          1.48935       -1.09094       -0.77467
