23
1msa2ma_16.log	Energy: -537116.4920961
S         -0.03280       -0.84964       -0.10041
O          0.94524       -1.22869       -1.10570
O         -1.34017       -1.51092       -0.10819
O         -0.28107        0.71535       -0.16922
H         -1.29126        0.90518       -0.41038
C          0.71202       -1.02080        1.50294
H          0.97499       -2.07287        1.61993
H          1.59808       -0.37598        1.52040
H         -0.01657       -0.71851        2.25517
N          2.77288        1.35660        0.54093
H          1.89689        1.63331        0.10638
C          3.68207        0.79010       -0.45628
H          3.98005        1.49090       -1.24998
H          4.58921        0.43422        0.04122
H          3.19602       -0.06889       -0.92515
H          3.17415        2.18353        0.96925
N         -2.78997        0.99391       -0.69950
H         -3.08454        1.72508       -1.33920
C         -3.53982        1.05016        0.56298
H         -4.62168        0.95330        0.42384
H         -3.19389        0.23511        1.20174
H         -3.33023        1.99754        1.06419
H         -2.94451        0.09607       -1.15367
