23
1msa1a1dma_03.log	Energy: -537128.1675096
S         -1.29780       -0.26883        0.00006
O         -1.62444       -1.69931       -0.00217
O         -0.55595        0.17653       -1.22499
O         -0.55835        0.17332        1.22758
C         -2.83441        0.63829       -0.00048
H         -3.38983        0.35828        0.89494
H         -2.61152        1.70561        0.00156
H         -3.38753        0.36118       -0.89821
N          1.82779       -0.38600        0.00124
C          3.14128        0.28843       -0.00044
C          1.87480       -1.86734       -0.00059
H          1.22692       -0.07560        0.79310
H          3.69283       -0.00894       -0.89399
H          2.95238        1.36328        0.00077
H          3.69619       -0.01070        0.89046
H          2.39894       -2.20508       -0.89562
H          2.40170       -2.20737        0.89196
H          0.85018       -2.24493        0.00041
H          1.22375       -0.07381       -0.78791
N          0.87840        2.60939       -0.00013
H          0.34366        2.29218        0.80574
H          0.34688        2.29968       -0.81100
H          0.89689        3.62320        0.00466
