28
1msa1ma1eda_77.log	Energy: -596519.2643980
S         -1.66667        0.13613       -0.13955
O         -1.87003       -1.22793       -0.66330
O         -1.06802        1.08925       -1.09128
O         -0.90159        0.09598        1.16628
C         -3.27270        0.78200        0.29792
H         -3.86461        0.84395       -0.61567
H         -3.73569        0.10075        1.01181
H         -3.13830        1.77110        0.73609
H          1.57055       -3.35537       -0.12166
H          0.00604       -2.62952       -0.64318
H          2.13212       -1.76613       -1.88211
H          1.03953       -0.55046       -1.22459
H          3.72737       -0.99182       -0.43484
H          2.66011        0.22116        0.00939
H          0.49715       -2.64257        1.84536
H          1.68891       -1.50617        1.44126
C          0.98128       -2.43685       -0.19402
C          1.74578       -1.34076       -0.95093
N          0.77403       -1.92065        1.18644
N          2.79660       -0.79372       -0.09302
H          0.04391       -1.12245        1.19921
N          1.55802        1.89448        0.22453
H          0.78835        1.79793       -0.43898
C          2.18576        3.20827        0.10017
H          1.48993        4.05103        0.21933
H          2.97767        3.31281        0.84839
H          2.65232        3.29589       -0.88534
H          1.10721        1.79673        1.13008
