35
1msa2tma_06.log	Energy: -635762.0210016
N          1.85491       -1.53008       -0.03404
C          0.89581       -2.08330        0.94791
H          0.67767       -1.30215        1.67639
H         -0.02392       -2.35540        0.42786
H          1.33069       -2.96450        1.42783
C          2.12484       -2.46631       -1.14309
H          1.18139       -2.71531       -1.63094
H          2.78287       -1.97883       -1.86333
H          2.59692       -3.37427       -0.75816
C          3.09769       -1.06355        0.62494
H          3.73347       -0.58858       -0.12320
H          2.82122       -0.32474        1.37806
H          3.61321       -1.91419        1.07910
S          0.80422        1.67212       -0.04131
O          1.87267        2.65894       -0.19207
O          0.70464        1.03758        1.29660
O          0.86438        0.57958       -1.10125
H          1.39822       -0.63358       -0.47984
C         -0.74795        2.49633       -0.35236
H         -0.86387        3.26951        0.40826
H         -0.69320        2.94671       -1.34394
H         -1.56521        1.77248       -0.29842
N         -2.99610       -0.26316       -0.06418
C         -4.39564       -0.64136       -0.11610
H         -4.96704       -0.05441        0.60883
H         -4.80045       -0.43934       -1.11219
H         -4.55262       -1.71526        0.10846
C         -2.21919       -0.96880       -1.06597
H         -2.64765       -0.79531       -2.05758
H         -1.19111       -0.59332       -1.07525
H         -2.20666       -2.06579       -0.88907
C         -2.44438       -0.45450        1.26572
H         -1.41715       -0.08026        1.30814
H         -3.03573        0.10751        1.99444
H         -2.45083       -1.52188        1.57053
