31
1msa1dma1eda_96.log	Energy: -621174.2163213
S         -1.79943       -0.57723        0.05682
O         -0.80578       -0.54774        1.15056
O         -1.38790       -1.34506       -1.12911
O         -2.24466        0.82731       -0.29507
H         -1.14578        1.80839       -0.22686
C         -3.27512       -1.35099        0.69423
H         -3.60402       -0.79807        1.57400
H         -4.03583       -1.32923       -0.08602
H         -3.02445       -2.37942        0.95571
H          4.20184       -1.25464       -0.36831
H          3.80961       -1.77099        1.26504
H          2.25539       -2.84097       -0.26679
H          1.35566       -1.65731        0.69478
H          2.15703       -1.32429       -2.08647
H          0.65843       -1.25361       -1.41760
H          2.91734        0.74468        0.09429
H          2.77296        0.29885        1.65396
C          3.44268       -1.17650        0.42113
C          2.12202       -1.76307       -0.08071
N          3.37386        0.22353        0.83796
N          1.64311       -1.03616       -1.25913
N         -0.28549        2.48967       -0.20554
C          0.59128        2.13858       -1.34961
C          0.37728        2.35976        1.11407
H         -0.64626        3.43471       -0.32343
H          0.95664        1.11191       -1.21719
H          0.00427        2.19472       -2.26695
H          1.43136        2.83573       -1.39440
H          0.55725        1.29701        1.28293
H          1.30834        2.93039        1.12072
H         -0.30145        2.72572        1.88472
