28
1msa1ma1eda_27.log	Energy: -596522.8713915
S         -1.77504        0.05091       -0.02840
O         -2.21680       -1.17808       -0.69908
O         -0.79110        0.85011       -0.80696
O         -1.26218       -0.19499        1.36602
H          0.29754       -0.41224        1.38294
C         -3.21277        1.08750        0.18933
H         -3.62589        1.29703       -0.79765
H         -3.93335        0.54064        0.79777
H         -2.90660        2.00856        0.68531
H          2.88376       -1.79150        0.70253
H          1.48908       -2.65115        1.40391
H          1.59243       -2.91173       -1.02411
H          0.09587       -2.12186       -0.52993
H          1.61010       -1.20225       -2.46263
H          0.73756       -0.20385       -1.51017
H          1.61827       -0.55740        2.41246
H          1.85403        0.27863        0.97720
C          1.79181       -1.81485        0.76807
C          1.18072       -1.98078       -0.62102
N          1.35886       -0.55264        1.42834
N          1.51863       -0.86637       -1.51111
N          2.73635        1.44152        0.05305
H          3.70137        1.69031        0.24374
C          1.91614        2.63922       -0.17907
H          2.27979        3.25959       -1.00749
H          0.89291        2.32176       -0.39613
H          1.90119        3.24893        0.72882
H          2.72092        0.83146       -0.76785
