33
1msa2eda_125.log	Energy: -655908.2386082
S         -0.86097        1.60342       -0.11345
O         -1.23273        0.70754       -1.21905
O          0.00781        2.74408       -0.52079
O         -0.23207        0.86572        1.04241
H          1.44206        1.27677        1.04910
C         -2.37203        2.29752        0.52534
H         -3.00848        1.47120        0.84470
H         -2.12996        2.95207        1.36244
H         -2.84790        2.85674       -0.28056
H         -0.89627       -3.75928       -0.58243
H         -0.30337       -3.51124        1.05797
H         -2.74297       -3.32920        1.04457
H         -2.01641       -1.78433        1.47435
H         -2.47118       -0.99269       -0.73286
H         -3.15082       -2.43091       -1.15358
H         -0.24626       -1.57157       -1.14194
H          0.09138       -1.18082        0.37055
C         -0.77920       -3.00597        0.20713
C         -2.15914       -2.48987        0.64576
N          0.12846       -1.96542       -0.28157
N         -2.95119       -1.81492       -0.37237
H          1.77881        0.18981       -1.00255
H          3.44213        0.79539       -1.10031
H          4.09646       -0.51744        0.86531
H          2.40013       -0.85931        1.25570
H          3.76574       -2.61610       -0.02345
H          2.25785       -2.24319       -0.59025
H          3.00869        1.97943        1.00685
H          1.76364        2.34026       -0.09732
C          2.66043        0.46047       -0.41698
C          3.11452       -0.72882        0.42441
N          2.24548        1.59949        0.45151
N          3.20735       -1.88473       -0.44694
