29
1msa2dma_49.log	Energy: -586423.5239668
S          1.69292       -0.56211        0.04345
O          2.75297        0.38730       -0.21902
O          1.04667       -0.60628        1.34944
O          2.31828       -2.04431       -0.21145
H          1.99591       -2.62540        0.49161
C          0.46964       -0.45294       -1.22871
H          0.00170        0.53486       -1.11925
H          0.97580       -0.55045       -2.18935
H         -0.27999       -1.23760       -1.07442
N         -0.86302        2.43378       -0.24982
C          0.37481        3.19245       -0.39571
C         -1.18066        2.14433        1.14383
H         -1.62652        2.95188       -0.67106
H          1.21756        2.58973       -0.04237
H          0.54670        3.41525       -1.45229
H          0.37522        4.13953        0.16900
H         -0.42773        1.46225        1.55185
H         -1.20985        3.04461        1.78040
H         -2.15244        1.64548        1.20474
N         -2.40129       -1.78782       -0.39293
C         -3.02824       -0.61166       -0.97933
C         -2.23345       -1.66966        1.04964
H         -2.95206       -2.61115       -0.60860
H         -2.35933        0.24931       -0.86802
H         -3.19167       -0.77384       -2.04834
H         -3.99414       -0.35294       -0.51178
H         -1.49920       -0.88849        1.26872
H         -3.17016       -1.42298        1.57881
H         -1.84221       -2.60683        1.45436
