31
1msa1dma1eda_68.log	Energy: -621177.8047455
S          2.03995       -0.34586        0.02652
O          0.75493       -0.71536        0.73559
O          2.53112        0.98256        0.42303
O          1.87890       -0.53321       -1.43578
C          3.23812       -1.54343        0.58708
H          3.35061       -1.43158        1.66551
H          2.87820       -2.54055        0.33376
H          4.18015       -1.33250        0.08009
H          0.35699        2.00133       -1.42143
H         -1.28988        2.14289       -2.08642
H         -1.15005        3.54702       -0.12235
H         -2.20159        2.19964        0.26304
H         -0.38208        1.21642        1.51038
H          0.61427        2.40637        1.09241
H         -0.35191       -0.13520       -1.93748
H         -0.29924       -0.06600       -0.31954
C         -0.69968        1.79231       -1.23436
C         -1.15595        2.46749        0.06415
N         -0.83283        0.31442       -1.15534
N         -0.36906        2.19841        1.25110
H         -1.81726       -0.03209       -1.05775
N         -3.13320       -1.04946       -0.25690
C         -3.33559       -0.44730        1.06138
C         -2.46522       -2.35146       -0.16808
H         -4.03066       -1.15984       -0.71748
H         -2.36082       -0.25088        1.51973
H         -3.86451        0.50345        0.95920
H         -3.90215       -1.09601        1.74486
H         -1.45820       -2.21195        0.24033
H         -3.00184       -3.06005        0.47907
H         -2.37332       -2.78782       -1.16605
