33
1msa2eda_111.log	Energy: -655910.4853745
S         -1.69080        1.09409       -0.07085
O         -1.87903        0.50035       -1.40807
O         -0.32157        1.57328        0.20258
O         -2.18223        0.16172        1.01121
H         -1.90870       -1.30614        0.69572
C         -2.76221        2.51749        0.03695
H         -2.44572        3.22853       -0.72654
H         -3.78750        2.19245       -0.13980
H         -2.65772        2.95139        1.03150
H         -1.14142       -3.54309       -1.16393
H         -1.66460       -1.87105       -1.58079
H          0.88513       -2.26422       -1.70485
H          0.35436       -0.91021       -0.71454
H          1.60595       -3.31755        0.23047
H          1.47179       -1.80417        0.93207
H         -2.51044       -2.90689        0.61515
H         -0.91234       -2.64541        1.10854
C         -1.09260       -2.48651       -0.88533
C          0.35950       -2.00239       -0.78020
N         -1.67707       -2.34302        0.47553
N          0.97501       -2.55080        0.42596
H          3.08463        1.78179        1.25247
H          3.93036        0.22972        1.33499
H          2.84256       -0.44851       -0.80978
H          2.00375        1.10867       -0.85883
H          4.91552        0.76202       -1.04275
H          3.90865        1.43615       -2.14334
H          1.93453        0.08819        2.61341
H          1.01205        0.54885        1.34295
C          3.01084        0.71840        0.98665
C          2.92560        0.61595       -0.53277
N          1.86328        0.04412        1.60221
N          4.05990        1.29595       -1.15173
