31
1msa1dma1eda_166.log	Energy: -621159.2591161
S         -2.15862       -0.29997        0.03172
O         -1.41006       -0.47491       -1.19897
O         -3.21033       -1.23993        0.38477
O         -2.85663        1.17211       -0.04431
H         -3.80884        1.05006        0.07726
C         -1.03827       -0.06511        1.37837
H         -0.46313       -0.98797        1.49506
H         -0.34579        0.74623        1.12461
H         -1.62329        0.15212        2.27190
H          3.58010       -1.75652        0.02724
H          2.70225       -3.11782        0.74243
H          1.97409       -2.92688       -1.52889
H          0.64638       -2.38538       -0.49828
H          2.26659       -0.75875       -2.25760
H          0.66229       -0.67712       -1.90518
H          2.63001       -1.24895        2.23158
H          1.89054       -0.31726        1.10604
C          2.58447       -2.09739        0.36062
C          1.65246       -2.12917       -0.84461
N          2.01544       -1.27516        1.42552
N          1.58587       -0.82194       -1.50883
N          1.38394        1.82628        0.07931
C          2.65208        2.42700        0.45517
C          0.49514        2.76764       -0.58452
H          1.54674        1.02179       -0.53153
H          2.49213        3.18373        1.23183
H          3.31983        1.66229        0.86491
H          3.17077        2.91759       -0.38764
H          0.17450        3.54131        0.12272
H          0.96430        3.27383       -1.44643
H         -0.39751        2.24697       -0.94159
