17
1msa2a_04.log	Energy: -487803.2920262
S         -0.03636        0.29311        0.13362
O         -0.64770        0.30739        1.45289
O          0.16322       -1.00539       -0.51736
O          1.35892        1.04609        0.17684
H          2.12292        0.36358        0.07906
C         -0.97215        1.35264       -0.93891
H         -0.47434        1.39332       -1.90725
H         -1.96314        0.89391       -1.01183
H         -1.02346        2.33931       -0.47847
N         -3.11429       -1.00387       -0.12571
H         -2.88200       -0.77372        0.83623
H         -2.44843       -1.70853       -0.42828
H         -4.04056       -1.41523       -0.14110
N          3.14362       -0.87250       -0.12991
H          3.87378       -0.75952       -0.82499
H          2.48132       -1.57125       -0.46250
H          3.56776       -1.21745        0.72505
