28
1msa1ma1eda_34.log	Energy: -596521.0438115
S          2.00671       -0.19088        0.02561
O          2.17630        1.18434       -0.48437
O          1.55981       -1.15616       -1.02447
O          1.12586       -0.26716        1.22905
C          3.61966       -0.74554        0.55306
H          4.28242       -0.73225       -0.31251
H          3.97633       -0.05840        1.32066
H          3.52321       -1.75524        0.95223
H         -2.65460       -1.54575       -1.48253
H         -2.04378       -2.65363       -0.24653
H         -4.19613       -1.83980        0.49004
H         -2.95304       -1.15225        1.53595
H         -4.32879        0.30266       -0.60462
H         -4.24936        0.67172        0.98727
H         -0.26681       -1.15642       -0.91506
H         -1.16290        0.23663       -0.62480
C         -2.29302       -1.60915       -0.45165
C         -3.36106       -1.12367        0.51958
N         -1.06719       -0.80188       -0.35302
N         -3.73955        0.25138        0.21960
H         -0.64569       -0.77701        0.58991
N         -0.72426        1.88061       -0.81784
H          0.27886        1.85436       -1.02046
C         -0.92303        2.47758        0.50881
H         -0.61102        3.52745        0.56496
H         -1.97890        2.39878        0.78175
H         -0.32960        1.90697        1.22815
H         -1.18164        2.43196       -1.53586
