29
1msa2dma_39.log	Energy: -586435.9302714
S         -1.96385       -0.27814        0.08005
O         -2.46442       -0.55490        1.42561
O         -0.64339       -0.90773       -0.23276
O         -1.90265        1.19505       -0.24929
H         -0.38020        1.59361       -0.19762
C         -3.13223       -0.96223       -1.08259
H         -3.20571       -2.03314       -0.89140
H         -4.09433       -0.47732       -0.91579
H         -2.77252       -0.77301       -2.09381
N          3.24145       -0.92805        0.07716
C          2.47743       -1.58113        1.13363
C          2.77034       -1.23878       -1.26340
H          3.28558        0.07270        0.22639
H          2.64015       -2.66208        1.07035
H          2.84845       -1.25015        2.10792
H          1.39037       -1.41080        1.07701
H          2.95165       -2.29912       -1.46762
H          1.69158       -1.06521       -1.42056
H          3.34070       -0.66043       -1.99643
N          0.67505        1.45447       -0.05313
C          0.99403        1.75719        1.35637
C          1.47388        2.17498       -1.05685
H          0.70211        0.42833       -0.19759
H          0.80610        2.81477        1.54647
H          0.34572        1.14917        1.98865
H          2.04019        1.52198        1.56118
H          1.31056        3.24770       -0.94337
H          2.53407        1.95029       -0.92423
H          1.15464        1.85839       -2.04987
