23
1msa2ma_09.log	Energy: -537117.2563681
S         -0.02508        0.54324       -0.06610
O          0.42122        0.06669       -1.37018
O         -0.16970       -0.45106        1.00120
O         -1.38982        1.32053       -0.21039
H         -2.18114        0.69168        0.10323
C          1.06487        1.83687        0.46783
H          0.73076        2.19159        1.44235
H          2.06478        1.39075        0.50707
H          1.02973        2.63327       -0.27585
N          3.38929       -0.33821       -0.39680
H          2.68518       -0.38827       -1.12870
C          3.28453       -1.50042        0.48513
H          3.43816       -2.46820       -0.01499
H          4.02085       -1.41306        1.28978
H          2.29110       -1.51154        0.94180
H          4.29775       -0.30604       -0.84582
N         -3.16549       -0.37762        0.55930
H         -2.67565       -0.77710        1.35713
C         -3.30244       -1.38228       -0.50680
H         -3.87885       -2.25990       -0.19626
H         -3.78732       -0.92295       -1.37038
H         -2.30394       -1.70438       -0.80980
H         -4.07211       -0.05125        0.87856
