28
1msa1ma1eda_14.log	Energy: -596523.8486540
S         -1.76479       -0.30109       -0.02112
O         -1.41933       -1.70486       -0.29630
O         -1.51074        0.61947       -1.17151
O         -1.13594        0.23234        1.22904
H          0.13923        1.46249        0.77821
C         -3.52724       -0.25623        0.26109
H         -4.02019       -0.62789       -0.63747
H         -3.74957       -0.89755        1.11422
H         -3.81968        0.77397        0.46436
H          4.00965       -1.26992        0.34293
H          3.29576       -0.12114        1.48865
H          2.07402       -2.30695        1.43144
H          1.03462       -0.95361        1.01139
H          1.95450       -3.01786       -0.78391
H          0.53405       -2.17713       -0.73845
H          3.76853        0.76829       -0.81188
H          2.56125       -0.22687       -1.32945
C          3.12384       -0.65000        0.54465
C          1.88710       -1.54529        0.66181
N          2.89827        0.32505       -0.53542
N          1.54612       -2.10164       -0.64392
N          0.60769        1.88909       -0.04507
H          1.51644        1.36509       -0.21650
C          0.79253        3.34390        0.06728
H          1.22754        3.72827       -0.85599
H         -0.17197        3.82265        0.23814
H          1.46121        3.56544        0.89989
H         -0.07262        1.61289       -0.78560
