29
1msa2dma_47.log	Energy: -586423.8975671
S          0.02219       -1.42999       -0.13158
O         -0.20344       -0.57374       -1.28090
O          1.14542       -2.35736       -0.12781
O         -1.32013       -2.33749        0.06883
H         -1.04988       -3.26510        0.01505
C         -0.00628       -0.45405        1.33940
H          0.85757        0.22338        1.26900
H         -0.94959        0.10882        1.34614
H          0.08127       -1.12634        2.19307
N         -2.59985        1.42507        0.62353
C         -3.45832        0.60333       -0.22120
C         -1.77090        2.34064       -0.14974
H         -3.16826        1.94915        1.27991
H         -2.83297       -0.03032       -0.85679
H         -4.07511       -0.04837        0.40320
H         -4.11995        1.19567       -0.87621
H         -1.09421        1.75572       -0.78038
H         -2.35272        3.01271       -0.80334
H         -1.16455        2.95053        0.52662
N          2.60557        1.39306        0.50880
C          2.06147        2.08204       -0.65485
C          3.56150        0.35270        0.14825
H          3.05241        2.06493        1.12313
H          1.46675        1.37800       -1.24555
H          1.39830        2.88779       -0.32807
H          2.83774        2.50969       -1.31187
H          3.04701       -0.44260       -0.39999
H          4.38891        0.72074       -0.48168
H          3.98250       -0.09065        1.05457
