28
1msa1ma1eda_63.log	Energy: -596520.8056874
S          1.61955       -0.58203       -0.04154
O          1.32864        0.34451       -1.16295
O          1.04840       -1.92562       -0.18897
O          1.26107        0.06727        1.27450
H          0.25862        1.24041        1.01780
C          3.39539       -0.77694        0.02229
H          3.71574       -1.23141       -0.91573
H          3.85185        0.20481        0.14994
H          3.63679       -1.42733        0.86335
H         -2.65941       -1.05026       -1.76726
H         -0.97673       -0.59505       -1.42160
H         -1.73282       -2.32746        0.13485
H         -1.36271       -0.84964        0.99410
H         -4.06444       -1.80396        0.36888
H         -3.43316       -1.45002        1.82732
H         -2.48800        1.32142       -1.73280
H         -3.29596        0.85853       -0.37602
C         -1.99895       -0.55635       -1.03860
C         -2.07100       -1.29618        0.28917
N         -2.38699        0.85322       -0.83756
N         -3.42431       -1.17950        0.85052
N         -0.41862        2.03014        0.75502
H         -1.19247        1.59667        0.15610
C          0.29798        3.07384       -0.00847
H         -0.40588        3.83502       -0.34961
H          1.06197        3.53005        0.62202
H          0.77455        2.57793       -0.85471
H         -0.83670        2.40019        1.60530
