23
1msa2ma_22.log	Energy: -537116.0710234
S          0.06820        0.48671        0.13486
O         -0.15802       -0.14630        1.42742
O          0.14527       -0.38420       -1.04136
O          1.38158        1.37057        0.18402
H          2.18191        0.79013       -0.15638
C         -1.16355        1.73400       -0.12321
H         -2.13244        1.21904       -0.16825
H         -1.12400        2.42708        0.71747
H         -0.94400        2.24247       -1.06181
N          3.19648       -0.28002       -0.67569
H          2.68291       -0.67117       -1.46246
C          3.38322       -1.30019        0.36756
H          3.94838       -2.17170        0.02012
H          3.90443       -0.85177        1.21575
H          2.40118       -1.63022        0.71350
H          4.08750        0.06023       -1.02251
N         -3.83993       -0.26201       -0.26038
H         -4.56083       -0.12777        0.44036
C         -3.07531       -1.48403        0.00808
H         -3.67970       -2.40238        0.02491
H         -2.29693       -1.59246       -0.75145
H         -2.56491       -1.38308        0.96893
H         -4.30744       -0.32081       -1.15861
