26
1msa1ma1dma_21.log	Energy: -561778.1577677
S          1.49366       -0.27015        0.10123
O          1.26668       -1.09346        1.29303
O          1.75689        1.16189        0.35780
O          0.35186       -0.40592       -0.89901
H         -0.63980        0.64920       -0.57610
C          2.90760       -0.93533       -0.75812
H          3.76763       -0.84532       -0.09391
H          2.70606       -1.98269       -0.98310
H          3.06224       -0.36280       -1.67239
N         -1.32553        1.42899       -0.22337
C         -0.82195        2.74016       -0.69177
C         -1.39968        1.31071        1.25377
H         -2.23931        1.22699       -0.62751
H          0.20290        2.83820       -0.33015
H         -0.82548        2.74915       -1.78204
H         -1.45410        3.54207       -0.30506
H         -0.40641        1.51632        1.65454
H         -2.13270        2.01819        1.64592
H         -1.67469        0.28532        1.50416
N         -1.96372       -2.25081        0.02186
H         -1.95185       -2.41142        1.02095
C         -3.14362       -1.54357       -0.42594
H         -3.33632       -0.56254        0.05776
H         -3.07385       -1.37596       -1.50554
H         -4.03869       -2.14903       -0.25250
H         -1.09688       -1.79248       -0.24654
