17
1msa2a_05.log	Energy: -487794.3169183
S         -0.93830       -0.12377        0.07736
O         -0.16824       -1.29214       -0.30643
O         -0.83337        0.41109        1.42590
O         -2.50991       -0.48630       -0.15889
H         -2.96216       -0.39121        0.69158
C         -0.70302        1.15383       -1.12457
H          0.33803        1.48541       -0.99042
H         -0.87659        0.72505       -2.11150
H         -1.40527        1.95869       -0.90847
N          2.94170       -1.33748       -0.07586
H          3.40033       -1.72208       -0.89470
H          1.94697       -1.54106       -0.15127
H          3.29928       -1.83069        0.73509
N          2.21613        1.67930        0.12598
H          1.89628        1.79958        1.08257
H          2.93920        2.37065       -0.04172
H          2.64221        0.74905        0.06298
