28
1msa1ma1eda_115.log	Energy: -596513.2838839
S         -1.46301        0.60683       -0.02577
O         -0.51670        1.56170       -0.61845
O         -1.04259        0.06103        1.28781
O         -1.80826       -0.52510       -0.96706
C         -3.00098        1.47157        0.23115
H         -3.72694        0.77145        0.64434
H         -2.80946        2.28717        0.92894
H         -3.33833        1.85977       -0.73002
H          1.44133       -3.42488       -0.60499
H          0.82415       -2.31020       -1.85941
H          2.68918       -1.34608       -0.36460
H          1.22420       -0.37241       -0.44320
H          2.32912       -1.47512        1.87074
H          0.85671       -0.71446        1.72125
H         -0.89712       -3.47489       -0.41903
H         -0.33034       -2.49597        0.81724
C          0.91930       -2.48166       -0.78549
C          1.63317       -1.32128       -0.08025
N         -0.44436       -2.59079       -0.20320
N          1.45606       -1.45540        1.36280
H         -1.07091       -1.76073       -0.53542
N          2.34022        2.10505        0.51213
H          2.60091        1.36458        1.15357
C          3.09023        2.01701       -0.73216
H          2.96908        1.07111       -1.28779
H          2.77311        2.82463       -1.39711
H          4.15810        2.15652       -0.53406
H          1.34198        2.02345        0.33193
