31
1msa1dma1eda_116.log	Energy: -621172.0813590
S         -0.10442       -1.50893       -0.12832
O          0.97462       -2.45450        0.22296
O         -0.04815       -0.98766       -1.50303
O         -0.13050       -0.37173        0.88871
H          1.30907       -0.08420        1.17007
C         -1.67499       -2.32174        0.07850
H         -1.73390       -3.11578       -0.66649
H         -1.71919       -2.73380        1.08683
H         -2.45684       -1.57284       -0.07363
H          3.99137        0.27984       -0.15165
H          2.59951       -0.66962       -0.74846
H          2.66798        1.62132       -1.79032
H          1.20529        1.33588       -0.85025
H          3.43923        3.06589       -0.10158
H          1.83320        3.31066        0.07673
H          2.79898       -0.73374        1.67654
H          2.59092        0.94306        1.70427
C          2.89955        0.21710       -0.18774
C          2.28593        1.48348       -0.77205
N          2.39376        0.07158        1.20459
N          2.56246        2.60981        0.12537
N         -2.80723        0.92525        0.15533
C         -3.63661        1.79543        0.96560
C         -2.46539        1.50169       -1.13327
H         -1.95089        0.68639        0.64953
H         -4.61121        1.93314        0.48281
H         -3.81007        1.33745        1.94367
H         -3.20088        2.80024        1.12479
H         -3.36963        1.60155       -1.74523
H         -2.00636        2.50646       -1.05405
H         -1.76747        0.83969       -1.65283
