34
1msa1eda1tma_30.log	Energy: -645837.9824818
S         -1.59108       -1.12468        0.14169
O         -2.44470       -0.15099        0.85955
O         -0.73002       -1.95455        0.99145
O         -0.81587       -0.42292       -0.95479
C         -2.68633       -2.23055       -0.73637
H         -3.27537       -2.77325        0.00353
H         -3.33252       -1.63809       -1.38411
H         -2.07774       -2.92002       -1.32180
H          3.19692       -1.33772        1.56571
H          1.51261       -0.79263        1.50793
H          1.92477       -2.37304       -0.27274
H          1.53462       -0.79580       -0.93426
H          4.22960       -1.95680       -0.80954
H          3.41523       -1.44163       -2.12523
H          3.27497        1.00907        1.73731
H          3.66489        0.68319        0.18328
C          2.47512       -0.73455        0.98991
C          2.30499       -1.35010       -0.39139
N          2.90137        0.66551        0.85813
N          3.56615       -1.26229       -1.13927
N         -0.43896        2.05311       -0.22167
C         -0.17861        2.09995        1.23890
H         -0.98340        1.56154        1.74127
H          0.78366        1.61690        1.41704
H         -0.14258        3.14487        1.55993
C          0.69382        2.60388       -0.99796
H          1.60005        2.08023       -0.68373
H          0.50507        2.43804       -2.05977
H          0.78605        3.67503       -0.79815
C         -1.73588        2.67612       -0.56748
H         -1.89899        2.57101       -1.64096
H         -2.51714        2.13922       -0.02705
H         -1.71830        3.73372       -0.29132
H         -0.53900        1.01594       -0.49809
