23
1msa1a1dma_23.log	Energy: -537114.4759816
S         -1.36462       -0.34329       -0.08915
O         -0.69448       -1.61976        0.08031
O         -1.16938        0.39636       -1.33563
O         -1.01556        0.61294        1.12336
H         -0.48125        1.43174        0.78603
C         -3.10694       -0.59241        0.17187
H         -3.44881       -1.28407       -0.59883
H         -3.24535       -1.02621        1.16209
H         -3.61531        0.36729        0.08630
N          3.26943       -0.65844       -0.02179
C          2.52275       -0.50292        1.21372
C          2.47261       -0.38446       -1.20343
H          4.09787       -0.07493       -0.01044
H          1.69795       -1.22093        1.23120
H          3.17385       -0.70426        2.06890
H          2.07839        0.50269        1.34488
H          1.64821       -1.10067       -1.25964
H          2.02323        0.62757       -1.21593
H          3.08617       -0.49550       -2.10160
N          0.31356        2.61594        0.07005
H         -0.03159        3.55901        0.21581
H          0.16148        2.36127       -0.90464
H          1.31306        2.60945        0.24719
