28
1msa1ma1eda_91.log	Energy: -596520.4374090
S          1.82405       -0.18230        0.05336
O          1.57887       -1.32878       -0.84907
O          0.85884       -0.09604        1.17262
O          1.90593        1.12227       -0.69125
H          0.38780        1.63707       -0.88082
C          3.44556       -0.41915        0.75820
H          4.17040       -0.45149       -0.05526
H          3.65338        0.41398        1.42963
H          3.43775       -1.36279        1.30422
H         -1.75383       -0.08076        1.33550
H         -2.95421       -1.26925        1.80213
H         -1.08500       -2.23359        0.48295
H         -2.63279       -2.45671       -0.35422
H         -0.34998       -1.24376       -1.30138
H         -1.80563       -1.27632       -2.05552
H         -3.37464        0.34080       -0.59196
H         -4.48411       -0.41429        0.32961
C         -2.54420       -0.72800        0.94364
C         -1.89669       -1.70986       -0.03045
N         -3.60898        0.09770        0.36681
N         -1.33968       -0.99515       -1.20014
N         -0.67122        1.75399       -0.84263
H         -0.98893        2.29604       -1.64232
C         -1.06194        2.37817        0.44506
H         -2.13738        2.27132        0.59729
H         -0.51683        1.85214        1.22949
H         -0.77450        3.42992        0.43639
H         -1.04264        0.76222       -0.94483
