28
1msa1ma1eda_102.log	Energy: -596514.3470650
S         -0.56402       -1.10799        0.08165
O         -0.65231       -0.14680        1.20700
O          0.36328       -2.22991        0.32599
O         -0.20583       -0.40497       -1.21171
H          1.33495       -0.45490       -1.23799
C         -2.20051       -1.75697       -0.17651
H         -2.47799       -2.30958        0.72195
H         -2.87488       -0.91030       -0.33080
H         -2.17299       -2.41791       -1.04286
H          3.92594        0.96677       -0.66033
H          2.60632        1.53758       -1.71908
H          2.53577        2.51440        0.64742
H          1.05882        1.66274        0.17520
H          2.80339        0.93490        2.28703
H          1.33726        0.28306        1.85222
H          2.92977       -0.95117       -1.68123
H          2.45479       -0.89262       -0.07459
C          2.84353        0.97303       -0.81480
C          2.11753        1.52876        0.41812
N          2.39125       -0.42843       -0.99605
N          2.25189        0.58167        1.51757
N         -3.11310        1.47640        0.33353
H         -3.76134        2.04339        0.86825
C         -2.45445        2.26749       -0.70242
H         -1.91514        3.15324       -0.32890
H         -1.73633        1.63035       -1.22616
H         -3.19541        2.60801       -1.43283
H         -2.41671        1.10188        0.97429
