31
1msa1dma1eda_93.log	Energy: -621174.7270130
S         -0.69495        1.33463       -0.27484
O         -2.14982        1.17827       -0.47528
O          0.12573        1.08463       -1.47191
O         -0.23651        0.49830        0.90426
H         -0.93992       -0.85745        0.78542
C         -0.38526        3.01717        0.22729
H         -0.70339        3.67008       -0.58588
H         -0.95677        3.22078        1.13272
H          0.68424        3.12591        0.41012
H          1.36733       -1.36997        0.61559
H          2.83010       -2.25861        0.19384
H          3.97084       -0.15603       -0.37823
H          2.44237        0.71836       -0.36793
H          2.30924        0.44321        1.96203
H          3.69712       -0.43398        2.02709
H          1.21931       -0.74569       -1.73355
H          2.43789       -1.78356       -2.08617
C          2.21201       -1.39430       -0.08344
C          2.99624       -0.08840        0.12195
N          1.68470       -1.60295       -1.43038
N          3.20816        0.29198        1.51324
N         -1.52920       -1.75686        0.64622
C         -1.52378       -2.10230       -0.80094
C         -2.87940       -1.48353        1.19258
H         -1.07475       -2.50089        1.17297
H         -1.95723       -1.25818       -1.33923
H         -0.48738       -2.25119       -1.12177
H         -2.11919       -3.00422       -0.95720
H         -3.25792       -0.59626        0.68215
H         -3.52967       -2.34322        1.02046
H         -2.79268       -1.27987        2.26022
