31
1msa1dma1eda_66.log	Energy: -621177.8676847
S          1.41671       -0.99591        0.04521
O          0.82699       -1.15081        1.38197
O          2.35785        0.13851       -0.09513
O          0.35798       -0.93374       -1.03502
H         -0.00959        0.57513       -1.31570
C          2.33725       -2.48236       -0.31295
H          3.11333       -2.58202        0.44640
H          1.64974       -3.32737       -0.27237
H          2.77776       -2.38524       -1.30509
H         -1.23856        3.23937       -0.65492
H         -1.80323        1.60077       -0.14302
H         -0.43092        2.94165        1.61718
H          0.14612        1.31041        1.28095
H          1.59649        3.66887        0.90406
H          2.03576        2.12428        0.48419
H         -0.65099        1.74847       -2.36631
H          0.73904        2.08652       -1.48252
C         -0.93494        2.23650       -0.34167
C          0.02600        2.31006        0.84972
N         -0.18341        1.62311       -1.47266
N          1.31495        2.83872        0.40133
N         -2.47876       -0.59985       -0.03336
C         -3.59762       -1.23300       -0.70913
C         -2.56747       -0.69621        1.41654
H         -1.60204       -1.01973       -0.33772
H         -4.52482       -0.69657       -0.47513
H         -3.44952       -1.19017       -1.79232
H         -3.74352       -2.28950       -0.42318
H         -3.38736       -0.06543        1.78209
H         -2.74766       -1.72463        1.77269
H         -1.62880       -0.35563        1.86063
