26
1msa1a1tma_01.log	Energy: -561791.3921808
S          1.51645       -0.14592        0.06577
O          1.12468       -1.36756        0.80098
O          1.71047        1.04713        0.90873
O          0.55443        0.12040       -1.06948
C          3.07797       -0.48525       -0.72967
H          3.80958       -0.69456        0.05121
H          2.95380       -1.34909       -1.38269
H          3.36976        0.39564       -1.30174
N         -0.71166        2.70411       -0.09106
H         -0.39837        2.50542       -1.03774
H          0.07579        2.41613        0.49274
H         -0.80790        3.71088       -0.00513
N         -1.83218       -0.44071       -0.06896
C         -2.90327        0.27408       -0.79745
H         -2.75761        1.34246       -0.62880
H         -2.81495        0.04947       -1.86149
H         -3.87692       -0.05544       -0.42541
C         -1.86757       -1.90688       -0.28226
H         -1.82844       -2.10494       -1.35410
H         -0.98529       -2.33323        0.19791
H         -2.78781       -2.31422        0.14388
C         -1.83244       -0.09959        1.37706
H         -0.97168       -0.58459        1.83938
H         -1.74029        0.98328        1.46287
H         -2.76652       -0.45146        1.82289
H         -0.89428       -0.11871       -0.47383
