28
1msa1ma1eda_32.log	Energy: -596522.8297248
S          1.58134       -0.49161        0.01508
O          1.49090        0.07795       -1.34715
O          0.48347       -1.48266        0.29063
O          1.64226        0.52701        1.08688
C          3.09491       -1.43432        0.07727
H          3.04966       -2.20245       -0.69476
H          3.92189       -0.74890       -0.11012
H          3.18059       -1.88323        1.06680
H         -3.15497       -0.77821        1.56829
H         -3.42298        0.83444        0.84876
H         -3.99283       -0.81973       -0.79620
H         -2.49551       -0.04102       -1.32068
H         -2.61114       -2.57629       -1.38800
H         -1.31727       -2.02155       -0.54303
H         -1.27293        0.64392        2.03681
H         -0.73925       -0.48746        0.93510
C         -2.81715       -0.07529        0.80372
C         -2.92568       -0.72699       -0.57100
N         -1.41170        0.30740        1.08663
N         -2.33660       -2.05611       -0.56367
H         -1.09709        1.08342        0.40173
N         -0.52178        2.17963       -0.74455
H          0.14628        1.56797       -1.22622
C          0.21485        3.26196       -0.07639
H          0.75976        3.90668       -0.77577
H         -0.47823        3.88273        0.49978
H          0.93491        2.80500        0.60623
H         -1.15639        2.55330       -1.44341
