33
1msa2eda_86.log	Energy: -655912.6565133
S         -2.30518       -0.17825        0.03701
O         -2.08208       -1.33941       -0.83884
O         -2.34694        1.12582       -0.72017
O         -1.35919       -0.07470        1.17502
C         -3.93936       -0.36706        0.72969
H         -3.95790       -1.30277        1.28906
H         -4.13874        0.47943        1.38684
H         -4.65606       -0.39736       -0.09120
H          0.98940        0.72789       -1.04518
H          0.86369        2.29760       -1.86933
H          3.17253        1.91095       -0.96981
H          2.41870        3.32578       -0.22968
H          2.78447        0.69849        0.97754
H          3.14653        2.17675        1.61042
H          0.07115        1.68633        0.90108
H         -0.08368        3.18214        0.20258
C          1.03843        1.81425       -0.90558
C          2.36955        2.23061       -0.28896
N         -0.06909        2.18205        0.01126
N          2.46807        1.67183        1.05265
H         -1.02647        1.85474       -0.35484
H          3.02935       -3.13427       -0.04585
H          2.91012       -2.37179        1.54626
H          0.68761       -2.93171        0.63839
H          0.84675       -1.19727        0.88658
H          1.13297       -2.52258       -1.70873
H         -0.08768       -1.56499       -1.22012
H          4.43008       -1.19377        0.01435
H          3.13699       -0.84647       -0.93664
C          2.70627       -2.22036        0.48101
C          1.20833       -2.03217        0.27833
N          3.42887       -1.03054        0.02097
N          0.91778       -1.71911       -1.12331
