28
1msa1ma1eda_47.log	Energy: -596522.1203963
S         -1.79091       -0.22448       -0.00512
O         -2.04243        1.18941        0.33680
O         -0.63278       -0.80290        0.76361
O         -1.62067       -0.47082       -1.45659
C         -3.22293       -1.14857        0.52366
H         -4.08597       -0.77022       -0.02471
H         -3.05368       -2.20206        0.30129
H         -3.35184       -0.99475        1.59518
H          2.67519       -1.88490       -1.32166
H          3.21480       -0.24314       -1.76950
H          4.14935       -0.86569        0.39505
H          3.00406        0.46099        0.60689
H          2.83454       -1.54130        2.17536
H          1.40987       -1.19431        1.43968
H          0.76206       -0.63909       -2.08884
H          0.57799       -0.80621       -0.46748
C          2.61002       -0.82455       -1.06833
C          3.08562       -0.61101        0.36408
N          1.20128       -0.39321       -1.20230
N          2.37101       -1.48935        1.27692
H          1.07590        0.66285       -1.05916
N          0.60177        2.24224       -0.52266
H          0.82416        3.06099       -1.07981
C          1.00318        2.44185        0.87624
H          0.50712        3.29684        1.34909
H          0.73480        1.54468        1.44087
H          2.08570        2.59063        0.93732
H         -0.41611        2.12678       -0.53579
