28
1msa1ma1eda_149.log	Energy: -596509.3185712
S         -1.76354       -0.63932        0.03286
O         -3.14287       -1.07482        0.13692
O         -1.06753       -0.23320        1.26191
O         -1.64825        0.54526       -1.00388
H         -1.24319        1.40036       -0.54699
C         -0.82255       -1.91312       -0.77393
H         -0.83675       -2.78304       -0.11570
H         -1.31807       -2.14049       -1.71809
H          0.20161       -1.56948       -0.94172
H          4.14251       -0.41149        0.07486
H          3.31064        0.53648       -1.16842
H          2.47415        1.13021        1.06702
H          1.20264        0.39043        0.07862
H          2.51682       -0.84581        2.35297
H          0.92438       -0.82387        1.90951
H          3.35074       -1.80424       -1.77673
H          2.52685       -2.17532       -0.40253
C          3.17176       -0.26031       -0.42805
C          2.14103        0.18680        0.60380
N          2.67749       -1.45494       -1.10432
N          1.87847       -0.87685        1.56707
N         -0.60953        2.58330        0.21006
H         -1.33119        3.22052        0.53385
C          0.44806        3.30402       -0.50834
H          0.95976        4.04911        0.11058
H          1.18506        2.58400       -0.87045
H          0.01294        3.80347       -1.37617
H         -0.24796        2.10544        1.03350
