33
1msa2eda_44.log	Energy: -655916.1479321
S         -1.81966       -0.71491        0.01342
O         -1.86501        0.19889        1.17549
O         -0.69215       -1.68201        0.07626
O         -1.82121        0.02758       -1.28762
C         -3.32275       -1.67334        0.03658
H         -3.35080       -2.22648        0.97560
H         -4.16418       -0.98357       -0.03073
H         -3.30845       -2.35416       -0.81443
H          1.86743        2.74315       -0.81893
H          0.64087        2.75213       -2.11637
H          0.04324        4.21787       -0.09082
H         -1.16897        2.99408       -0.48763
H          0.08939        3.25098        1.94827
H         -0.74091        1.90825        1.44416
H          1.38828        0.38009       -1.34917
H          0.72466        0.83406        0.09257
C          0.83804        2.48145       -1.07694
C         -0.15098        3.14168       -0.10644
N          0.68321        1.02238       -0.92024
N          0.01593        2.55489        1.21981
H         -0.26899        0.69579       -1.23101
H          3.10213       -2.64399        0.06067
H          4.04987       -1.43295       -0.82384
H          3.88194       -0.73783        1.45207
H          2.96075        0.37737        0.44827
H          1.64229       -0.26566        2.38496
H          0.96603       -1.18741        1.19517
H          2.23286       -1.91159       -2.17064
H          1.13171       -1.77005       -0.97439
C          3.09203       -1.61591       -0.32630
C          2.96898       -0.65436        0.85032
N          2.02350       -1.40308       -1.31808
N          1.83029       -0.97908        1.69210
