25
1msa1a1eda_32.log	Energy: -571860.4580542
S          1.54155       -0.44448       -0.05129
O          2.29741        0.73747       -0.57846
O          0.53963       -0.95568       -1.00872
O          0.97081       -0.14879        1.29332
H          0.62263        1.90505        1.39274
C          2.75261       -1.73425        0.17325
H          3.20484       -1.94468       -0.79600
H          3.50198       -1.38197        0.88196
H          2.23972       -2.61555        0.55893
H         -1.47467        0.18225        0.90353
H         -2.84911        1.28097        0.67397
H         -3.70519       -0.20727       -1.16004
H         -2.30405       -1.25623       -0.94763
H         -3.09738       -1.83553        1.20731
H         -4.36420       -0.79910        1.10308
H         -0.78822        0.63251       -1.31306
H         -2.00151        1.72639       -1.54027
C         -2.18181        0.57410        0.16354
C         -2.99231       -0.58967       -0.41735
N         -1.39453        1.31069       -0.83921
N         -3.72975       -1.37597        0.56086
N          0.62788        2.49780        0.55421
H          0.69494        3.48708        0.76820
H         -0.24982        2.22478       -0.02237
H          1.44643        2.12030        0.01344
