34
1msa1eda1tma_18.log	Energy: -645838.9100662
S          2.24633       -0.54532       -0.06996
O          2.25675        0.02703        1.29379
O          3.12689        0.12345       -1.03446
O          0.82010       -0.64688       -0.57829
C          2.78794       -2.24290        0.06253
H          3.81583       -2.23436        0.42646
H          2.13839       -2.76510        0.76552
H          2.73500       -2.69739       -0.92686
H         -4.31621       -2.05450        0.24838
H         -4.26312       -1.39663       -1.39185
H         -2.21635       -2.66377       -0.87682
H         -1.85345       -0.97139       -1.20227
H         -1.86982       -2.21192        1.43917
H         -0.67091       -1.38967        0.66478
H         -4.98060        0.30096        0.13509
H         -3.61272        0.12541        1.02162
C         -3.81745       -1.30962       -0.39521
C         -2.33248       -1.64279       -0.48277
N         -3.99643        0.06178        0.08285
N         -1.67858       -1.43866        0.80977
N         -0.20807        1.74204       -0.02456
C          0.93136        2.65664       -0.29037
H          1.77215        2.35350        0.33415
H          1.21875        2.56314       -1.33788
H          0.62578        3.68123       -0.06461
C         -1.38034        2.05586       -0.87461
H         -1.09095        1.94025       -1.92044
H         -2.20445        1.37683       -0.63511
H         -1.68709        3.08870       -0.68881
C         -0.55284        1.69972        1.41865
H         -1.31731        0.93305        1.55811
H          0.34711        1.41348        1.96520
H         -0.91169        2.68402        1.73043
H          0.13477        0.76281       -0.27882
