32
1msa1dma1tma_07.log	Energy: -611102.0947661
S          1.52216       -0.88848       -0.03656
O          1.00961       -1.57015       -1.23192
O          0.62880       -0.93122        1.14103
O          1.94029        0.53981       -0.32105
H          0.75706        1.43348       -0.10326
C          3.04204       -1.70513        0.42507
H          2.80571       -2.74748        0.64116
H          3.73595       -1.63689       -0.41298
H          3.44901       -1.21127        1.30739
N         -2.90935       -0.84013       -0.09358
C         -2.67672       -1.35926        1.25054
C         -2.44043       -1.76302       -1.12564
H         -3.90297       -0.67592       -0.22017
H         -1.59953       -1.47679        1.40166
H         -3.05757       -0.64874        1.99191
H         -3.15901       -2.33603        1.42762
H         -1.35404       -1.87125       -1.05126
H         -2.89650       -2.76447       -1.04732
H         -2.67054       -1.35456       -2.11470
N         -0.08006        2.12446       -0.03288
C         -0.67607        1.97913        1.31530
H         -0.90724        0.92494        1.46811
H          0.05642        2.29481        2.05901
H         -1.57673        2.59517        1.38171
C          0.48465        3.46927       -0.26251
H          1.25322        3.66367        0.48661
H          0.93662        3.49485       -1.25477
H         -0.30614        4.22078       -0.19213
C         -1.03656        1.72995       -1.09660
H         -0.48391        1.59428       -2.02722
H         -1.53060        0.79761       -0.80246
H         -1.78896        2.51606       -1.21026
