31
1msa1dma1eda_115.log	Energy: -621171.3011125
S          0.67428        1.03028       -0.01977
O          0.07093        1.29447       -1.33019
O          2.08800        1.51917        0.10741
O          0.61113       -0.42262        0.38138
H          2.14173       -1.04356        0.26331
C         -0.27779        1.90858        1.20146
H         -0.18147        2.97388        0.98821
H         -1.31884        1.58774        1.09362
H          0.12406        1.67565        2.18761
H         -2.92224       -1.23205       -1.37402
H         -1.78782       -0.99617       -0.03925
H         -3.64048       -2.36147        0.73229
H         -3.71576       -0.77882        1.53184
H         -5.39904       -1.59961       -0.72522
H         -5.88299       -1.18332        0.78053
H         -2.21782        1.08470       -1.13277
H         -3.82924        0.97706       -0.75608
C         -2.79025       -0.73614       -0.39440
C         -3.83084       -1.28838        0.56937
N         -2.89181        0.71638       -0.46679
N         -5.18073       -1.00930        0.07125
N          3.17070       -0.89402        0.05923
C          3.45251       -1.29377       -1.33346
C          4.03853       -1.50013        1.08123
H          3.14852        0.15421        0.11822
H          3.30510       -2.36951       -1.44097
H          2.76065       -0.75908       -1.98534
H          4.48063       -1.03109       -1.58851
H          3.92624       -2.58544        1.05666
H          5.07912       -1.23470        0.88629
H          3.74064       -1.12350        2.05995
