26
1msa1ma1dma_57.log	Energy: -561774.0736254
S         -0.74601       -1.14568       -0.08182
O          0.54820       -1.79227        0.08276
O         -1.01900       -0.46191       -1.34965
O         -1.01234       -0.14560        1.09259
H         -1.07950        0.87860        0.70474
C         -2.00289       -2.37673        0.18755
H         -1.87617       -3.13918       -0.58177
H         -1.85505       -2.80527        1.17875
H         -2.98057       -1.90290        0.10549
N          2.97738        0.11957       -0.46851
C          2.14281        1.30090       -0.52572
C          3.88938        0.13596        0.65980
H          2.37809       -0.69864       -0.40992
H          2.75585        2.18271       -0.74916
H          1.40709        1.18586       -1.32775
H          1.60348        1.49970        0.42307
H          4.61986        0.94425        0.53486
H          3.38572        0.28406        1.63323
H          4.44008       -0.80745        0.70039
N         -1.20799        2.15480        0.06562
H         -0.49192        2.81168        0.36197
C         -2.55565        2.72481        0.19905
H         -2.68369        3.64928       -0.37214
H         -3.28079        1.98880       -0.15306
H         -2.75592        2.92642        1.25301
H         -1.01292        1.90100       -0.90201
