25
1msa1a1eda_25.log	Energy: -571862.6264201
S          1.80728        0.02963       -0.01601
O          0.70664        0.46257       -0.95577
O          1.96155       -1.43173        0.02145
O          1.61689        0.66446        1.31255
C          3.30919        0.70675       -0.70402
H          3.45805        0.26911       -1.69136
H          3.20304        1.78943       -0.77093
H          4.12926        0.43798       -0.03764
H         -0.35653       -1.30035        1.07987
H         -1.76787       -1.04215        2.12355
H         -2.13029       -2.53987        0.10823
H         -3.31531       -1.24612        0.31136
H         -0.99256       -0.81115       -1.44331
H         -2.40649       -1.45127       -1.98673
H         -0.58807        0.98624        1.69820
H         -0.58495        0.74976        0.08841
C         -1.35411       -0.85713        1.13025
C         -2.26675       -1.45059        0.05927
N         -1.17654        0.60993        0.95170
N         -1.99517       -0.87832       -1.25890
H         -2.07930        1.11413        0.82581
N         -3.51135        1.64198       -0.29227
H         -4.49456        1.47820       -0.10413
H         -3.18948        0.95479       -0.98253
H         -3.43050        2.56554       -0.70509
