23
1msa2ma_30.log	Energy: -537116.4400391
S         -1.38804        0.18096       -0.08343
O         -0.53531        0.19220       -1.27577
O         -2.57122        1.02263       -0.07642
O         -0.48168        0.50177        1.17383
H          0.37298        1.04369        0.91390
C         -1.85782       -1.49376        0.28037
H         -2.56443       -1.79649       -0.49354
H         -0.95852       -2.11466        0.25139
H         -2.33727       -1.50648        1.25913
N          1.68662        1.84792        0.63889
H          1.49479        2.82541        0.84086
C          2.17216        1.69619       -0.74343
H          3.07833        2.27893       -0.94080
H          2.37830        0.64103       -0.93014
H          1.38152        1.99604       -1.43145
H          2.39786        1.54851        1.30036
N          1.32790       -2.21705       -0.54307
H          1.85552       -2.79792       -1.18383
C          2.13887       -1.80675        0.59629
H          3.04893       -1.23781        0.34129
H          1.52684       -1.19107        1.26202
H          2.44977       -2.69026        1.16140
H          0.96873       -1.41718       -1.05900
