26
1msa1ma1dma_50.log	Energy: -561774.9487370
S         -1.66295       -0.16937       -0.17534
O         -0.66682       -0.54415       -1.18164
O         -2.51354        0.97557       -0.46981
O         -0.95030        0.01139        1.21411
H         -0.17716        0.75293        1.15201
C         -2.67959       -1.58224        0.18442
H         -3.22484       -1.81700       -0.73036
H         -2.03344       -2.41084        0.47217
H         -3.36801       -1.31699        0.98620
N          2.26977       -1.21386       -0.43162
C          3.23276       -0.25814       -0.92316
C          2.41330       -1.53378        0.96894
H          1.31616       -0.95953       -0.67130
H          4.24246       -0.68134       -0.86409
H          3.02581       -0.02782       -1.97138
H          3.25692        0.70110       -0.36261
H          3.36476       -2.05204        1.13784
H          2.40276       -0.65376        1.64488
H          1.60488       -2.19850        1.28208
N          0.88646        1.78519        0.99858
H          0.81964        2.47748        1.73935
C          0.76454        2.42456       -0.32537
H          1.53048        3.18748       -0.49493
H          0.84352        1.65329       -1.09341
H         -0.22608        2.87494       -0.41099
H          1.79493        1.33641        1.09089
