23
1msa2ma_25.log	Energy: -537114.5083033
S         -0.19312        1.15801        0.06183
O          1.16218        1.60431       -0.22484
O         -0.44125        0.46166        1.32709
O         -0.73526        0.26992       -1.11143
H         -0.91801       -0.74207       -0.75539
C         -1.26069        2.57905       -0.02848
H         -0.93634        3.27332        0.74736
H         -1.14787        3.02901       -1.01477
H         -2.28808        2.25919        0.14272
N         -1.17556       -2.02615       -0.13018
H         -0.71267       -2.80497       -0.58918
C         -2.61421       -2.27321        0.03823
H         -2.82524       -3.17498        0.62131
H         -3.05511       -1.41330        0.54589
H         -3.07987       -2.36843       -0.94464
H         -0.72754       -1.88709        0.77436
N          3.35309       -0.65586       -0.00531
H          2.91741        0.26139       -0.04908
C          2.32501       -1.67601        0.13120
H          1.59601       -1.70804       -0.69801
H          2.79073       -2.66388        0.21193
H          1.77338       -1.49553        1.05938
H          3.87449       -0.78490       -0.86508
