29
1msa1ma1tma_12.log	Energy: -586442.1279427
S         -0.83561       -1.20340        0.02163
O         -0.41607       -2.59661       -0.15557
O         -0.76308       -0.37399       -1.21004
O         -0.06767       -0.51176        1.13702
H          1.18841       -0.01558        0.54479
C         -2.52959       -1.19144        0.57306
H         -3.11707       -1.72897       -0.17225
H         -2.57427       -1.70194        1.53524
H         -2.86268       -0.15368        0.64704
N         -2.50476        2.03875       -0.44960
H         -2.01716        1.36413       -1.03581
C         -1.57251        2.69393        0.45812
H         -0.81436        3.32729       -0.03426
H         -2.12296        3.32423        1.16368
H         -1.04971        1.92504        1.03608
H         -2.97534        2.70844       -1.04673
N          2.10699        0.32637        0.04918
C          1.76050        1.57963       -0.65838
H          0.90716        1.36759       -1.30478
H          1.47653        2.33207        0.07820
H          2.62067        1.92542       -1.23810
C          3.12637        0.52804        1.09774
H          2.75662        1.26094        1.81598
H          3.29711       -0.42065        1.60770
H          4.05715        0.88384        0.64779
C          2.48966       -0.74665       -0.90136
H          2.59151       -1.68320       -0.35212
H          1.68875       -0.85707       -1.63321
H          3.43176       -0.48151       -1.38875
