31
1msa1dma1eda_102.log	Energy: -621173.7415966
S         -0.01767        0.98730        0.25717
O          0.06171        0.10874        1.44138
O         -0.36412        0.26660       -0.99441
O          1.25347        1.77904        0.05458
H          2.09669        0.87885       -0.88775
C         -1.29794        2.18369        0.56512
H         -2.24249        1.63484        0.62240
H         -1.06973        2.69078        1.50277
H         -1.31090        2.88952       -0.26563
H          4.20422       -1.25358       -1.17168
H          4.40361        0.34468       -0.40211
H          3.93180       -1.53547        1.25955
H          2.75208       -0.21898        1.32302
H          2.21619       -2.91013        0.61132
H          1.16482       -1.64457        0.84023
H          2.81655        0.29986       -2.34463
H          1.83614       -0.68321       -1.40626
C          3.70473       -0.47287       -0.59160
C          3.12313       -1.04449        0.70789
N          2.56859        0.04645       -1.39221
N          2.02385       -1.94473        0.38316
N         -3.28031       -0.44542       -0.23323
C         -4.40719       -0.75507       -1.09236
C         -3.06828       -1.44128        0.80419
H         -2.42943       -0.35646       -0.78419
H         -5.33570       -0.72496       -0.51007
H         -4.48594       -0.00504       -1.88472
H         -4.34270       -1.75318       -1.56423
H         -3.90860       -1.42638        1.50843
H         -2.98007       -2.47049        0.40923
H         -2.15393       -1.20192        1.35374
