31
1msa1dma1eda_60.log	Energy: -621178.8832561
S          2.09904       -0.26833       -0.06782
O          2.42505        1.14854        0.18352
O          1.43486       -0.51894       -1.36386
O          1.31347       -0.85980        1.07672
H          0.02460        0.00173        1.29270
C          3.63454       -1.18008       -0.07896
H          4.12827       -1.03248        0.88159
H          3.40859       -2.23399       -0.24157
H          4.24799       -0.78893       -0.89116
H         -1.43453        2.61844        1.33935
H          0.32219        2.30940        1.27568
H         -0.21946        3.00587       -0.87627
H         -0.00534        1.26971       -1.00791
H         -2.58899        2.66743       -0.99097
H         -1.94530        1.74108       -2.16394
H         -1.03636        0.60916        2.44303
H         -1.65760        0.05950        0.96040
C         -0.65473        1.97353        0.92061
C         -0.66497        2.04066       -0.60069
N         -0.86105        0.59315        1.44105
N         -2.01064        1.84881       -1.15670
N         -2.64189       -0.91171       -0.03819
C         -3.87992       -1.53300        0.41101
C         -1.72575       -1.84896       -0.69190
H         -2.83192       -0.12908       -0.66507
H         -3.65793       -2.27335        1.18658
H         -4.54249       -0.77595        0.84011
H         -4.41755       -2.04710       -0.40079
H         -1.40080       -2.60241        0.03216
H         -2.19420       -2.36447       -1.54355
H         -0.83080       -1.32430       -1.03984
