28
1msa1ma1eda_162.log	Energy: -596509.4815913
S          0.64567       -0.75886       -0.02465
O          0.13428       -0.21165       -1.27919
O          0.66564        0.14031        1.13166
O          2.09839       -1.33515       -0.23849
H          2.80174       -0.60293        0.05432
C         -0.26147       -2.22814        0.36658
H          0.09493       -2.61036        1.32272
H         -1.31646       -1.92793        0.39656
H         -0.09336       -2.94989       -0.43341
H         -4.48407        0.83548       -0.37328
H         -4.25019       -0.12432        1.10624
H         -3.21673        2.06856        1.29829
H         -1.98319        0.79778        1.37515
H         -1.62220        2.82978       -0.13355
H         -1.29853        1.38193       -0.79450
H         -3.80782       -1.45034       -0.83762
H         -2.62116       -0.44267       -1.31296
C         -3.73923        0.29816        0.23313
C         -2.69866        1.30407        0.70875
N         -3.10377       -0.80532       -0.49371
N         -2.05111        1.96022       -0.42781
N          3.63488        0.59708        0.50742
H          3.17349        0.86298        1.37465
C          3.49731        1.66888       -0.49173
H          3.95219        2.61206       -0.17202
H          3.96117        1.34672       -1.42596
H          2.43454        1.83363       -0.68061
H          4.61070        0.41152        0.71680
