23
1msa1a1dma_27.log	Energy: -537110.3212746
S         -1.52566       -0.23806        0.02219
O         -0.66302       -1.05399       -0.82698
O         -1.19589       -0.06578        1.42103
O         -3.01079       -0.90108       -0.07967
H         -2.90928       -1.79594       -0.43471
C         -1.82949        1.33850       -0.71788
H         -0.89047        1.90369       -0.60306
H         -2.09328        1.18050       -1.76314
H         -2.64235        1.81413       -0.16836
N          2.29293       -0.32010       -0.18169
C          2.35993       -0.76309        1.20352
C          3.49703       -0.62468       -0.93620
H          1.48289       -0.74389       -0.62543
H          3.13012       -0.19105        1.73383
H          1.39859       -0.57932        1.69025
H          2.60336       -1.83418        1.30742
H          4.34098       -0.05986       -0.52446
H          3.76784       -1.69458       -0.91534
H          3.36620       -0.32209       -1.97876
N          1.06121        2.48033        0.12836
H          0.96337        2.59325        1.13267
H          1.61099        3.26215       -0.21199
H          1.59551        1.61680       -0.03241
