28
1msa1ma1eda_120.log	Energy: -596512.8979367
S         -0.83621       -1.09715       -0.08049
O         -0.14176       -2.38684       -0.26856
O         -0.84245       -0.22861       -1.27428
O         -0.25875       -0.37036        1.12207
H          1.20237       -0.62626        1.07236
C         -2.53254       -1.41561        0.35505
H         -2.98372       -1.96854       -0.46969
H         -2.54744       -2.00628        1.27102
H         -3.02680       -0.44948        0.48707
H          3.56622       -0.75113       -0.79460
H          1.84580       -1.04725       -1.18019
H          2.52865        1.30515       -1.76253
H          1.25748        1.24129       -0.54394
H          4.05436        1.95948       -0.09410
H          2.69864        2.61442        0.54391
H          2.45410       -1.79004        1.06462
H          2.83527       -0.18952        1.44454
C          2.53468       -0.47023       -0.56115
C          2.31505        1.02913       -0.72325
N          2.26633       -0.81093        0.86225
N          3.13102        1.74260        0.26424
N         -2.82920        1.91691       -0.35007
H         -2.27868        1.34960       -0.99155
C         -1.94008        2.65501        0.54192
H         -1.27030        3.36879        0.03373
H         -2.53197        3.21362        1.27420
H         -1.31941        1.93874        1.08777
H         -3.40137        2.54842       -0.89903
