33
1msa2eda_47.log	Energy: -655917.0105505
S          1.93496       -0.28136        0.04447
O          1.93761        0.49238        1.29706
O          1.75127        0.53870       -1.18126
O          0.95729       -1.42454        0.05903
H         -0.41942       -0.79170       -0.70317
C          3.54266       -1.04613       -0.09563
H          3.69073       -1.68737        0.77358
H          3.56996       -1.62827       -1.01676
H          4.28979       -0.25247       -0.11766
H          0.18676        3.17126        0.54327
H         -1.25898        3.96218       -0.08764
H         -1.74951        2.79560        1.98966
H         -2.66412        2.09577        0.64444
H         -0.13855        0.90127        1.60514
H         -1.64668        0.30603        1.90643
H         -0.72895        2.92158       -1.97809
H          0.32572        1.89475       -1.25769
C         -0.79198        2.98645        0.08289
C         -1.65433        2.19985        1.06630
N         -0.62213        2.27961       -1.20106
N         -1.09976        0.87216        1.26675
H         -1.78291       -3.06289       -0.88201
H         -3.35181       -2.84371       -0.09942
H         -3.19223       -1.09118       -1.70377
H         -2.91403       -0.33673       -0.11469
H         -0.98594       -0.79945       -2.25527
H         -1.18794        0.57332       -1.28707
H         -1.79522       -3.19533        1.60153
H         -0.78835       -2.01732        1.07998
C         -2.35155       -2.40921       -0.19733
C         -2.51595       -1.03971       -0.84657
N         -1.76847       -2.29629        1.13378
N         -1.21823       -0.48598       -1.31502
