29
1msa1ma1tma_21.log	Energy: -586439.7044014
S          0.62703       -1.32887        0.00805
O          0.13363       -2.70665       -0.07287
O          0.44589       -0.67521        1.32682
O          0.02640       -0.44308       -1.07808
H         -1.16175        0.16884       -0.52864
C          2.37136       -1.34407       -0.35267
H          2.85148       -1.96093        0.40831
H          2.50355       -1.79034       -1.33887
H          2.75818       -0.32137       -0.32734
N          3.23510        2.02041       -0.13459
H          3.80220        2.27730        0.66538
C          1.81830        2.27222        0.12134
H          1.57031        3.32560        0.32948
H          1.23811        1.93400       -0.74244
H          1.49592        1.65711        0.96595
H          3.56741        2.55678       -0.92794
N         -2.08784        0.58674       -0.08477
C         -1.67483        1.64561        0.86198
H         -0.97734        1.19939        1.57267
H         -1.16784        2.43652        0.30661
H         -2.55495        2.05108        1.36911
C         -2.90981        1.10722       -1.19361
H         -2.34773        1.88024       -1.71959
H         -3.12779        0.29187       -1.88448
H         -3.84185        1.52600       -0.80373
C         -2.74549       -0.54246        0.61601
H         -2.92347       -1.34279       -0.10320
H         -2.06415       -0.90654        1.38601
H         -3.68801       -0.20246        1.05418
