25
1msa1a1eda_71.log	Energy: -571843.4321165
S          1.87373       -0.00357       -0.07691
O          1.00243       -0.06846       -1.23531
O          3.14063        0.70496       -0.14559
O          2.23034       -1.54975        0.32535
H          3.19400       -1.63603        0.32007
C          0.93209        0.48985        1.33635
H          0.53804        1.48667        1.10111
H          0.11162       -0.22671        1.43397
H          1.59039        0.49051        2.20478
H         -4.04308       -1.08315        0.23852
H         -3.91569        0.22093       -0.94948
H         -2.51426       -1.63835       -1.63427
H         -1.49436       -0.24809       -1.23045
H         -1.89771       -2.57863        0.48967
H         -0.51164       -2.04373       -0.18774
H         -3.70542        1.05298        1.32825
H         -2.34067        0.16423        1.51799
C         -3.36333       -0.31561       -0.17040
C         -2.16273       -1.00293       -0.80749
N         -2.91759        0.64741        0.83504
N         -1.39896       -1.74167        0.20250
N         -0.74538        2.60670       -0.35999
H         -1.03668        3.54685       -0.60256
H         -1.56354        2.07584       -0.04968
H         -0.38062        2.16484       -1.19889
