28
1msa1ma1eda_123.log	Energy: -596514.2315349
S          1.58730       -0.47010       -0.09189
O          0.79677       -1.56552       -0.66659
O          1.00250        0.07980        1.18181
O          1.87365        0.64654       -1.04377
H          0.92695        2.08862       -0.55651
C          3.16824       -1.15573        0.36682
H          2.99147       -1.94360        1.09922
H          3.62880       -1.56345       -0.53327
H          3.78351       -0.36276        0.79168
H         -1.77672       -2.17794        0.48980
H         -3.44254       -1.94288        1.01016
H         -3.30187       -1.67217       -1.36916
H         -3.76279       -0.13626       -0.62482
H         -0.96777       -0.71021       -1.33436
H         -2.00499        0.06035       -2.33888
H         -1.10420       -0.25127        1.47339
H         -2.62999        0.37499        1.61591
C         -2.55787       -1.42138        0.62243
C         -2.92867       -0.84272       -0.74663
N         -2.08300       -0.47936        1.62574
N         -1.80739       -0.12954       -1.36173
N          0.40308        2.48428        0.25641
H          0.52388        1.67007        0.91677
C         -1.02412        2.74794       -0.04794
H         -1.53302        3.04538        0.86958
H         -1.09366        3.54598       -0.78802
H         -1.44729        1.81499       -0.44805
H          0.89565        3.29904        0.61422
