31
1msa1dma1eda_80.log	Energy: -621177.0573410
S          1.84146       -0.40062       -0.13670
O          2.36217        0.83793       -0.74826
O          0.98241       -1.21772       -1.00754
O          1.16848       -0.09619        1.18664
H          0.47661        1.25431        1.16296
C          3.24973       -1.40664        0.30389
H          3.89292       -0.82920        0.96783
H          2.88649       -2.30731        0.79903
H          3.77511       -1.66064       -0.61723
H         -0.57206        3.62007       -0.37384
H          0.74199        2.47864       -0.83452
H         -1.51424        1.96421       -1.94741
H         -0.82383        0.63557       -1.02168
H         -3.17850        2.16555       -0.33067
H         -2.76363        0.58883        0.02313
H          0.39376        2.89924        1.64691
H         -1.03772        2.02505        1.41688
C         -0.22597        2.58268       -0.34133
C         -1.27065        1.63114       -0.93222
N         -0.07136        2.19098        1.08658
N         -2.42355        1.55814       -0.03599
N         -2.81066       -1.39479        0.17343
C         -1.97363       -1.67127        1.34023
C         -2.31071       -2.05576       -1.03240
H         -3.75597       -1.71544        0.35871
H         -0.97693       -1.24769        1.18305
H         -2.41380       -1.20086        2.22479
H         -1.85431       -2.74889        1.53829
H         -1.28415       -1.72961       -1.22192
H         -2.29861       -3.15420       -0.94274
H         -2.93452       -1.78110       -1.88824
