20
1msa1a1ma_15.log	Energy: -512459.3729188
S         -0.39854       -0.40396        0.13048
O          0.21154       -0.62066        1.43087
O         -0.40914        0.96132       -0.40833
O         -1.89083       -0.94153        0.13822
H         -2.54785       -0.15187        0.08130
C          0.36040       -1.49268       -1.04695
H          1.39856       -1.15302       -1.13341
H          0.29323       -2.50930       -0.65963
H         -0.16475       -1.39468       -1.99675
N          2.80324        0.69629       -0.73310
H          3.46054        1.10033       -1.39093
C          3.40464        0.56816        0.59489
H          3.79170        1.50922        1.01293
H          2.65531        0.17186        1.28470
H          4.22957       -0.14921        0.55080
H          1.99109        1.30657       -0.69982
N         -3.38762        1.22150       -0.04721
H         -2.62950        1.84867       -0.31047
H         -3.78757        1.55296        0.82456
H         -4.10584        1.26140       -0.76256
