28
1msa1ma1eda_106.log	Energy: -596515.4908422
S          1.44225       -0.70991       -0.02001
O          0.33508       -1.62619       -0.32780
O          1.30624        0.00118        1.27829
O          1.70275        0.28914       -1.12181
H          1.20529        1.65265       -0.60557
C          2.92602       -1.69495        0.07200
H          2.78768       -2.43490        0.86075
H          3.06670       -2.18316       -0.89242
H          3.76485       -1.03781        0.30109
H         -1.05383        3.57681       -0.05948
H         -0.61996        2.85046       -1.63742
H         -2.51352        1.66933       -0.53498
H         -1.13211        0.59741       -0.76864
H         -2.28487        0.66139        1.46353
H         -0.68404        0.69566        1.50346
H          1.31703        3.32678       -0.21086
H          0.76081        2.21658        0.89440
C         -0.65630        2.68963       -0.55746
C         -1.49212        1.46676       -0.19946
N          0.74853        2.49143       -0.09444
N         -1.49293        1.26213        1.24452
N         -2.66831       -1.55165        0.52759
H         -1.66042       -1.64687        0.40294
C         -3.33861       -1.74715       -0.75548
H         -3.16410       -2.72918       -1.21937
H         -4.41806       -1.61334       -0.63275
H         -2.99071       -0.98612       -1.46051
H         -2.95414       -2.26926        1.18526
