33
1msa2eda_126.log	Energy: -655903.6145411
S          0.21121       -0.93824       -0.17601
O          0.16748        0.29643       -0.96808
O         -0.06380       -0.80438        1.25438
O          1.59186       -1.65247       -0.38184
H          2.36082       -1.15083        0.21843
C         -0.90707       -2.10987       -0.89257
H         -1.92097       -1.70574       -0.76144
H         -0.65709       -2.21964       -1.94791
H         -0.79273       -3.05526       -0.36206
H         -4.19162        0.37442        1.70857
H         -2.56727       -0.32203        1.53498
H         -2.49331        2.04149        1.00035
H         -2.15646        1.09181       -0.44926
H         -4.68312        2.45745        0.13502
H         -3.72129        2.61410       -1.17778
H         -4.37293       -1.63986        0.44112
H         -4.52247       -0.41145       -0.63823
C         -3.41076        0.09907        0.97853
C         -2.94200        1.35964        0.26301
N         -3.87523       -0.87860       -0.00745
N         -4.05460        1.95560       -0.48395
H          4.87568        1.03483        0.75072
H          4.78361       -0.22459       -0.50243
H          3.95643        2.01553       -1.30120
H          2.73674        0.74507       -1.41762
H          2.56545        3.09205        0.14833
H          1.42498        1.92539       -0.12687
H          3.84674       -0.96293        1.63473
H          2.73627        0.25286        1.53957
C          4.19030        0.43561        0.13776
C          3.30978        1.35503       -0.71194
N          3.31422       -0.38758        0.98943
N          2.38808        2.09712        0.14550
