28
1msa1ma1eda_87.log	Energy: -596518.3955603
S          1.79383       -0.18103       -0.11846
O          1.77480        1.17109       -0.69802
O          1.63157       -1.28842       -1.08514
O          0.79302       -0.33471        1.00787
C          3.39142       -0.37996        0.65393
H          4.15047       -0.28195       -0.12268
H          3.50773        0.40229        1.40434
H          3.43611       -1.36718        1.11380
H         -2.96533       -2.59544        0.02729
H         -2.15987       -2.21486        1.57395
H         -3.91737       -0.47817        0.87266
H         -2.30066        0.18522        1.12568
H         -3.71583        0.10641       -1.34419
H         -2.30112        0.91510       -0.93747
H         -0.59410       -2.73481       -0.36301
H         -1.17976       -1.32619       -1.03703
C         -2.31769       -1.88319        0.54563
C         -2.89714       -0.46269        0.47413
N         -1.01617       -1.83358       -0.15335
N         -2.81358        0.02193       -0.89630
H         -0.28750       -1.25164        0.38948
N         -0.99391        2.35952       -0.57789
H         -0.08022        2.02442       -0.88880
C         -0.89425        2.69432        0.84582
H         -0.24571        3.55569        1.05610
H         -1.88923        2.90613        1.25322
H         -0.47626        1.83115        1.37065
H         -1.20619        3.19065       -1.12058
