31
1msa1dma1eda_156.log	Energy: -621167.4316450
S         -1.04598       -1.27923       -0.09331
O         -1.67682       -0.56381       -1.20338
O         -1.08560       -0.59340        1.22193
O          0.38747       -1.68433       -0.39968
H          1.24941       -0.96608        0.61082
C         -1.91664       -2.82525        0.09463
H         -2.95755       -2.59377        0.32230
H         -1.84343       -3.36951       -0.84701
H         -1.45956       -3.38938        0.90744
H          3.68518       -1.01935       -0.26394
H          4.29106        0.60788       -0.57594
H          3.54175        0.61352        1.69556
H          2.34523        1.52894        0.74786
H          2.01340       -0.99484        2.12542
H          0.86206        0.13071        1.75294
H          2.93257        0.18494       -2.39144
H          1.68401       -0.39909       -1.49799
C          3.37737        0.03321       -0.39564
C          2.78287        0.54400        0.91297
N          2.46025        0.26112       -1.49921
N          1.69353       -0.35872        1.39881
N         -1.46680        2.47847       -0.60378
C         -2.48706        2.71294        0.40156
C         -0.12912        2.59829       -0.07037
H         -1.58966        1.54613       -0.99033
H         -2.42163        3.74743        0.76085
H         -3.47689        2.57450       -0.04182
H         -2.39890        2.03847        1.27235
H          0.09474        3.64872        0.15644
H          0.01003        2.02557        0.87279
H          0.60003        2.24008       -0.80381
