26
1msa1ma1dma_26.log	Energy: -561778.4162959
S         -1.72285       -0.09629       -0.10982
O         -0.45526       -0.85867       -0.36128
O         -2.46364        0.24613       -1.32157
O         -1.42458        1.08456        0.77697
H          0.15296        1.43993        0.60047
C         -2.75502       -1.17182        0.87108
H         -2.22537       -1.42919        1.78822
H         -3.67857       -0.63722        1.09435
H         -2.96368       -2.06462        0.28093
N          1.12808        1.25260        0.21801
C          2.17540        1.40626        1.24018
C          1.32567        2.04208       -1.01461
H          0.98397        0.25654       -0.04193
H          2.26508        2.45914        1.51199
H          1.89462        0.82474        2.11855
H          3.12667        1.04419        0.84478
H          1.31785        3.10461       -0.76734
H          2.27771        1.77068       -1.47416
H          0.50554        1.81600       -1.69707
N          2.20646       -2.11921        0.40953
H          1.20890       -1.94250        0.33864
C          2.93802       -1.67012       -0.76023
H          2.97091       -0.57474       -0.92029
H          3.97406       -2.01862       -0.70890
H          2.48521       -2.10841       -1.65241
H          2.57138       -1.74828        1.27701
