26
1msa1ma1dma_65.log	Energy: -561766.6807889
S         -1.65725       -0.30303       -0.05172
O         -0.81064       -0.26510       -1.24072
O         -1.34385       -1.23230        1.01294
O         -3.16840       -0.60971       -0.57910
H         -3.09996       -1.00585       -1.45975
C         -1.88175        1.31879        0.61247
H         -0.88546        1.63484        0.96664
H         -2.23982        1.96890       -0.18558
H         -2.60363        1.25198        1.42653
N          2.08124       -0.80308       -0.05129
C          2.08098       -1.94069        0.85600
C          3.28320       -0.72027       -0.86382
H          1.26065       -0.84314       -0.64944
H          2.86592       -1.80840        1.60954
H          1.11717       -1.99524        1.36678
H          2.26286       -2.90271        0.34644
H          4.14738       -0.51705       -0.22110
H          3.49547       -1.64461       -1.42865
H          3.19186        0.10579       -1.57500
N          1.22627        1.96972        0.89397
H          1.75345        2.48647        1.58938
C          1.34967        2.59426       -0.42139
H          2.38361        2.70045       -0.78252
H          0.80307        1.98574       -1.14912
H          0.89185        3.58908       -0.41037
H          1.60956        1.01999        0.84047
