23
1msa2ma_11.log	Energy: -537116.8623543
S         -0.04424       -0.79865       -0.18706
O          0.96236       -1.08391       -1.19872
O         -1.34139       -1.47102       -0.28186
O         -0.30104        0.75955       -0.12856
H         -1.31904        0.96894       -0.31631
C          0.66732       -1.10653        1.41155
H          0.83800       -2.18203        1.47974
H          1.61784       -0.56436        1.46132
H         -0.04037       -0.78005        2.17334
N          3.39636        0.29889        0.23065
H          4.39234        0.11245        0.26427
C          3.13858        1.71948        0.00091
H          3.59791        2.12597       -0.91243
H          2.05878        1.87512       -0.06818
H          3.50619        2.29887        0.85348
H          3.00281       -0.25491       -0.52612
N         -2.81867        1.13265       -0.54656
H         -3.10385        2.02417       -0.94007
C         -3.52973        0.84899        0.70900
H         -4.61847        0.83937        0.59222
H         -3.20207       -0.12811        1.06919
H         -3.25908        1.60348        1.45076
H         -3.02334        0.41006       -1.23251
