31
1msa1dma1eda_142.log	Energy: -621166.5298769
S          0.25632       -1.37612       -0.21398
O          0.94252       -0.85325       -1.38753
O         -0.76759       -2.40660       -0.41093
O         -0.39392       -0.19606        0.59775
H         -1.49502       -0.33015        0.63503
C          1.48403       -1.97397        0.92396
H          1.96936       -2.82666        0.44675
H          2.20069       -1.16228        1.08758
H          0.98646       -2.27864        1.84433
H         -3.36546        1.96961        1.18274
H         -4.11978        2.45802       -0.33560
H         -4.73388        0.20054       -0.09992
H         -3.40113        0.17808       -1.27407
H         -3.25277       -0.56948        1.56227
H         -2.91697       -1.50255        0.25052
H         -1.87606        3.21299       -0.36835
H         -1.27643        1.69626       -0.18179
C         -3.32639        1.83236        0.08609
C         -3.66071        0.37895       -0.23175
N         -2.06829        2.23128       -0.52666
N         -2.88184       -0.55106        0.61561
N          3.10481        0.82651        0.09974
C          4.48920        1.12241       -0.22517
C          2.36539        1.99832        0.53938
H          2.63510        0.42169       -0.70629
H          5.02082        1.43295        0.68156
H          4.97850        0.22335       -0.60985
H          4.60442        1.92684       -0.97353
H          2.78613        2.36485        1.48306
H          2.39275        2.83096       -0.18613
H          1.32221        1.72326        0.71504
