29
1msa2dma_15.log	Energy: -586439.2328079
S         -1.56762       -0.51488       -0.06760
O         -0.80800       -1.33934       -1.02400
O         -2.06968        0.76508       -0.66485
O         -0.79453       -0.23055        1.18123
H          0.24733        1.21488        0.66898
C         -3.00943       -1.44059        0.41860
H         -3.58636       -1.65702       -0.48067
H         -2.66928       -2.36306        0.88946
H         -3.58944       -0.83739        1.11671
N          0.23606        1.97439       -0.04462
C          1.15429        1.62750       -1.15370
C          0.46194        3.29377        0.57135
H         -0.75047        1.85130       -0.38984
H          2.18190        1.63435       -0.78809
H          0.89127        0.62963       -1.51022
H          1.03231        2.35668       -1.95585
H          1.46581        3.32741        0.99764
H          0.35795        4.06956       -0.18864
H         -0.27837        3.44503        1.35697
N          2.10286       -1.66159        0.27863
C          3.03211       -1.60321       -0.82537
C          2.40691       -0.75656        1.35880
H          1.13997       -1.57314       -0.03338
H          4.02017       -1.95388       -0.50271
H          2.68881       -2.25888       -1.62945
H          3.17083       -0.58711       -1.24819
H          3.34518       -1.05052        1.84517
H          2.53951        0.30211        1.03964
H          1.60510       -0.78849        2.09903
