31
1msa1dma1eda_61.log	Energy: -621179.7471440
S          0.23350        1.63742       -0.00738
O         -0.90111        1.39350       -0.91677
O          1.53382        1.84134       -0.67449
O          0.35295        0.55555        1.04377
H          1.37353       -0.50160        0.36873
C         -0.14790        3.12480        0.90371
H         -0.22307        3.94139        0.18503
H         -1.09912        2.97793        1.41572
H          0.65438        3.31150        1.61754
H         -0.97899       -1.06606       -0.76413
H         -1.81786       -2.62032       -0.86824
H         -3.43039       -1.83701        0.86714
H         -2.43313       -0.40720        1.15093
H         -2.94792        0.39284       -0.97589
H         -3.85110       -0.93074       -1.36246
H         -0.52202       -1.65893        1.56755
H         -1.04906       -3.18163        1.28128
C         -1.53106       -1.81206       -0.18488
C         -2.77178       -1.10672        0.37765
N         -0.63056       -2.36770        0.84138
N         -3.53596       -0.34582       -0.59571
N          1.82867       -1.36705       -0.05154
C          3.08115       -1.65689        0.66722
C          1.99358       -1.17632       -1.50834
H          1.09545       -2.08490        0.15826
H          3.76731       -0.81910        0.53510
H          2.85989       -1.77996        1.72788
H          3.53125       -2.57085        0.27468
H          2.61728       -0.29882       -1.67887
H          2.43888       -2.07282       -1.94448
H          1.01448       -0.98840       -1.94890
