26
1msa1ma1dma_15.log	Energy: -561781.8626783
S         -1.47049        0.27275       -0.04902
O         -1.06980        1.27723       -1.04559
O         -0.80270        0.39571        1.26442
O         -1.34248       -1.14186       -0.57716
H         -0.01053       -1.71435       -0.31504
C         -3.22288        0.47411        0.22359
H         -3.38364        1.47873        0.61562
H         -3.73297        0.34819       -0.73143
H         -3.55103       -0.27657        0.94240
N          0.97974       -2.15972       -0.15220
C          1.37811       -1.94362        1.25838
C          1.92638       -1.56846       -1.13043
H          0.87144       -3.15666       -0.33150
H          1.41951       -0.86863        1.42821
H          0.61800       -2.37476        1.90947
H          2.35142       -2.40434        1.44027
H          2.04045       -0.50640       -0.88018
H          2.88925       -2.08028       -1.06393
H          1.50404       -1.67907       -2.12968
N          1.78434        1.53160        0.04389
H          1.08272        1.75652       -0.65993
C          2.79946        2.57781        0.12493
H          2.40209        3.57947        0.34601
H          3.52883        2.32543        0.90107
H          3.34136        2.63577       -0.82416
H          1.24184        1.48218        0.90319
