34
1msa1eda1tma_64.log	Energy: -645827.4541655
S          0.10762       -1.55866        0.12277
O         -0.31201       -1.05062        1.42095
O          1.11909       -2.61671        0.09496
O          0.62299       -0.37033       -0.78992
H          1.68576       -0.34943       -0.75282
C         -1.33394       -2.05219       -0.78455
H         -1.79073       -2.87338       -0.23026
H         -1.99804       -1.17933       -0.81889
H         -1.02553       -2.37810       -1.77754
H          3.51636        2.20802       -1.11261
H          3.89024        2.77617        0.51633
H          4.77791        0.60175        0.44841
H          3.25377        0.43799        1.34661
H          3.65913       -0.26972       -1.47969
H          3.33508       -1.29343       -0.24101
H          1.60850        3.27326        0.02726
H          1.23734        1.68512       -0.16196
C          3.27046        2.06808       -0.04350
C          3.68568        0.65934        0.36688
N          1.87759        2.33232        0.28832
N          3.17853       -0.34812       -0.58711
N         -2.91440        0.78081       -0.13407
C         -1.87201        1.76973        0.09411
H         -1.11187        1.35519        0.76051
H         -1.39543        2.02682       -0.85721
H         -2.27165        2.69709        0.54807
C         -3.94489        1.29708       -1.01569
H         -3.50106        1.59391       -1.97098
H         -4.69262        0.52195       -1.21111
H         -4.46441        2.17687       -0.58869
C         -3.47327        0.31280        1.12462
H         -4.22116       -0.46317        0.93057
H         -2.67633       -0.11761        1.73657
H         -3.96211        1.12577        1.69487
