33
1msa2eda_15.log	Energy: -655917.5578894
S          1.92052       -0.97684        0.01159
O          1.29845       -2.01409       -0.83952
O          1.20151       -0.73957        1.28486
O          2.15305        0.30736       -0.73290
C          3.55109       -1.57181        0.43145
H          3.43555       -2.51342        0.96874
H          4.10484       -1.72365       -0.49514
H          4.03998       -0.82612        1.05839
H         -1.54484        2.06858        0.72806
H         -0.09547        1.15122        1.23774
H          0.22085        3.60032        1.64731
H          1.36206        2.97468        0.45123
H         -0.98632        4.62675       -0.11910
H          0.55051        4.80778       -0.64577
H         -0.93220        0.45787       -0.96085
H         -0.54356        2.07185       -1.50509
C         -0.47973        1.89867        0.53880
C          0.30586        3.19959        0.62860
N         -0.33275        1.34051       -0.82357
N         -0.15668        4.12174       -0.41171
H          0.66788        1.02113       -0.94220
H         -2.08444       -2.62875        0.45886
H         -1.16885       -1.25786        1.08039
H         -3.50504       -1.08011        1.80075
H         -3.15117        0.22518        0.65872
H         -4.58649       -2.23601       -0.02990
H         -5.16374       -0.70858       -0.06756
H         -0.68221       -1.64219       -1.20987
H         -2.27288       -1.36843       -1.63101
C         -1.96078       -1.53771        0.37872
C         -3.27263       -0.86110        0.74732
N         -1.53860       -1.13622       -0.96752
N         -4.32622       -1.26691       -0.18547
