31
1msa1dma1eda_75.log	Energy: -621176.5674933
S         -1.79797       -0.60119       -0.08628
O         -1.86393        0.12807       -1.36755
O         -2.25318        0.18906        1.08182
O         -0.42820       -1.17116        0.17279
H          0.36279        0.10912        1.06042
C         -2.88360       -2.00998       -0.22691
H         -2.54547       -2.61933       -1.06528
H         -2.84017       -2.57208        0.70585
H         -3.89165       -1.63506       -0.40589
H          1.46938        2.87795        1.28033
H          2.31136        1.41768        0.64081
H          1.37868        2.85030       -1.20993
H          0.64980        1.24249       -1.17644
H         -0.70285        3.69906       -0.78873
H         -1.32475        2.16377       -0.89411
H          0.72000        0.95155        2.47265
H         -0.52416        1.43165        1.46049
C          1.35809        1.94136        0.72799
C          0.71532        2.19360       -0.63598
N          0.44241        1.06218        1.50086
N         -0.61832        2.74955       -0.45382
N          2.45820       -0.95423       -0.09798
C          2.90819       -2.12479        0.63862
C          3.35101       -0.59634       -1.18709
H          1.52079       -1.13441       -0.45294
H          3.83626       -1.89371        1.17478
H          2.14740       -2.40647        1.37112
H          3.10291       -2.99903       -0.00626
H          4.32554       -0.29778       -0.78277
H          3.52397       -1.41581       -1.90551
H          2.94007        0.25588       -1.73771
