29
1msa2dma_18.log	Energy: -586436.4261244
S          0.08211        0.56342        0.00925
O         -0.45945        0.46593        1.36067
O          0.35558       -0.69771       -0.68949
O          1.38573        1.43725        0.00023
H          2.28082        0.81241        0.09549
C         -1.01335        1.55255       -0.97453
H         -1.97545        1.02351       -1.00287
H         -1.11811        2.52367       -0.49003
H         -0.58186        1.65557       -1.96999
N          3.42252       -0.05341        0.19963
C          3.63593       -0.67714       -1.11344
C          3.13366       -1.03559        1.25474
H          4.24129        0.49057        0.45806
H          2.70060       -1.15173       -1.41882
H          3.88964        0.09496       -1.84273
H          4.43612       -1.42688       -1.08477
H          2.20967       -1.55743        0.99461
H          3.94311       -1.76760        1.36429
H          2.97999       -0.51497        2.20192
N         -3.69577       -0.33197       -0.43141
C         -3.90006        0.08206        0.95148
C         -3.10134       -1.65887       -0.53711
H         -4.58048       -0.31578       -0.92694
H         -2.92648        0.18042        1.44171
H         -4.39172        1.05904        0.97355
H         -4.50996       -0.62863        1.53567
H         -2.10167       -1.64367       -0.09347
H         -3.68971       -2.44239       -0.02878
H         -2.99074       -1.92986       -1.59052
