34
1msa1eda1tma_55.log	Energy: -645831.3951823
S          0.76568       -1.83317       -0.10926
O          1.76095       -2.89413       -0.15995
O          0.69809       -0.91729       -1.25344
O          0.91694       -0.99039        1.20777
H          1.56942       -0.13590        1.09412
C         -0.83950       -2.54801        0.15281
H         -1.04194       -3.18544       -0.70920
H         -0.79789       -3.14494        1.06418
H         -1.57921       -1.74382        0.23206
H          3.49985        2.24280       -0.37677
H          2.90091        0.68127       -0.98858
H          1.55109        2.56008       -1.86917
H          0.60374        1.44187       -0.89105
H          1.46028        4.12433       -0.08798
H         -0.01856        3.43381        0.02736
H          3.31789        0.81761        1.48469
H          2.00273        1.81303        1.54902
C          2.66289        1.53216       -0.34511
C          1.38702        2.20154       -0.84426
N          2.43941        1.04883        1.02998
N          0.97571        3.25139        0.09045
N         -2.74236        0.27210        0.10989
C         -2.44163        0.51311       -1.29241
H         -1.39637        0.26367       -1.49577
H         -3.07065       -0.12514       -1.92017
H         -2.62411        1.56692       -1.58267
C         -4.15020        0.48372        0.39426
H         -4.75989       -0.17724       -0.22864
H         -4.35643        0.25298        1.44360
H         -4.46660        1.52765        0.20182
C         -1.90536        1.08816        0.97060
H         -2.11494        0.86357        2.02031
H         -0.85162        0.86523        0.78755
H         -2.07492        2.17256        0.81084
