28
1msa1ma1eda_90.log	Energy: -596517.7808232
S         -1.87126       -0.34896       -0.01412
O         -2.23450        0.99278       -0.49134
O         -0.86323       -0.32386        1.10317
O         -1.43095       -1.28741       -1.08633
C         -3.34867       -1.05705        0.69431
H         -3.68143       -0.40446        1.50171
H         -4.10315       -1.11042       -0.09083
H         -3.11311       -2.05184        1.07250
H          2.48996       -0.68046       -1.77287
H          1.50866        0.61922       -1.01512
H          3.87094        0.70431       -0.20995
H          2.74396        0.34853        1.09842
H          4.53291       -1.58187       -0.18387
H          4.30933       -1.29354        1.40889
H          0.42332       -1.61029       -0.94447
H          1.71944       -2.12157        0.05689
C          2.08218       -0.30006       -0.83138
C          3.18886       -0.05935        0.18487
N          1.16719       -1.32979       -0.28128
N          3.83885       -1.33148        0.51268
H          0.56858       -0.93328        0.49396
N          0.40668        2.47549       -0.69758
H          0.52034        3.31915       -1.24910
C          0.59257        2.75790        0.72568
H         -0.02802        3.58014        1.10969
H          0.33131        1.85868        1.29131
H          1.64262        3.00370        0.92374
H         -0.54478        2.13708       -0.84649
