20
1msa1a1ma_25.log	Energy: -512450.4037910
S          1.42202        0.02392        0.04555
O          1.01252        1.33776        0.50292
O          2.82560       -0.25941       -0.20706
O          0.63447       -0.25870       -1.35576
H          1.29737       -0.51048       -2.01451
C          0.70054       -1.20939        1.09009
H          1.12125       -1.05226        2.08475
H         -0.39379       -1.06693        1.08866
H          0.98402       -2.18806        0.70246
N         -2.45024       -0.70382        0.66965
H         -3.18765       -0.93011        1.32834
C         -2.68416       -1.36393       -0.61253
H         -3.64752       -1.11922       -1.08409
H         -1.88797       -1.07737       -1.30560
H         -2.63610       -2.45078       -0.48688
H         -2.44766        0.31209        0.53967
N         -1.92354        2.25954       -0.03729
H         -2.24811        3.06120        0.49260
H         -2.04354        2.47615       -1.02107
H         -0.92513        2.15562        0.13421
