31
1msa1dma1eda_22.log	Energy: -621182.1682456
S         -2.07439       -0.25119        0.05103
O         -3.12751        0.14829        0.98484
O         -0.89189       -0.89734        0.68377
O         -1.62284        0.86414       -0.85841
H         -0.21401        1.37028       -0.41279
C         -2.77836       -1.46829       -1.05455
H         -3.10753       -2.31678       -0.45348
H         -3.62718       -1.01235       -1.56478
H         -2.01618       -1.77373       -1.77208
H          1.60881       -0.98542        1.32578
H          2.72801       -2.33252        1.51949
H          3.88150       -0.22404        0.80269
H          4.10224       -1.55363       -0.35171
H          3.43904        0.37961       -1.56409
H          2.16796       -0.66045       -1.51754
H          1.62396       -3.38866       -0.17849
H          0.47504       -2.20138       -0.04365
C          2.26543       -1.66920        0.77796
C          3.36270       -0.86365        0.07979
N          1.46215       -2.39067       -0.20583
N          2.73683       -0.02534       -0.95293
N          0.71137        1.76845       -0.04987
C          0.61503        1.86128        1.42051
C          0.96860        3.05505       -0.71783
H          1.46870        1.08665       -0.32343
H         -0.15971        2.58408        1.68268
H          0.32401        0.88163        1.80195
H          1.57537        2.17588        1.83563
H          0.14075        3.73779       -0.51940
H          1.90085        3.48746       -0.34705
H          1.04366        2.88572       -1.79266
