28
1msa1ma1eda_60.log	Energy: -596521.4090930
S          1.70793       -0.38355        0.09436
O          0.92742        0.07147        1.27432
O          3.03707        0.21449       -0.03243
O          0.87081       -0.22478       -1.16016
H          0.05649        1.15647       -1.09477
C          1.90657       -2.14953        0.26639
H          2.49718       -2.33063        1.16495
H          0.91711       -2.60034        0.35917
H          2.42714       -2.52264       -0.61587
H         -2.85070       -0.10398       -1.38990
H         -3.77306       -1.51051       -0.86014
H         -3.99025        0.29567        0.74254
H         -3.18558       -1.11077        1.47216
H         -2.14279        1.06180        1.96967
H         -1.08881        0.05429        1.25342
H         -1.80669       -2.47710       -1.42001
H         -0.85624       -1.26596       -0.87775
C         -2.88067       -0.91506       -0.63972
C         -3.06942       -0.29897        0.74208
N         -1.71270       -1.78581       -0.68579
N         -1.95096        0.58777        1.09213
N         -0.52831        1.99885       -0.80329
H         -1.00249        2.39032       -1.61288
C          0.33265        2.99146       -0.11987
H         -0.27019        3.83754        0.21280
H          0.79103        2.49159        0.73450
H          1.11464        3.32883       -0.80007
H         -1.23697        1.57963       -0.11612
