17
1msa2a_02.log	Energy: -487805.8610764
S          1.18998       -0.04774       -0.00012
O          2.37083       -0.90766        0.00079
O          0.33172       -0.17213        1.22766
O          0.33288       -0.17264       -1.22840
C          1.77137        1.64272        0.00007
H          2.37438        1.78902        0.89657
H          2.37598        1.78872       -0.89540
H          0.91277        2.31441       -0.00082
N         -1.77930       -1.19805        0.00013
H         -1.98496       -2.19182        0.00171
H         -2.64183       -0.61213        0.00032
H         -1.14098       -0.92959        0.79357
H         -1.14304       -0.93192       -0.79517
N         -3.95702        0.71926        0.00003
H         -4.54955        0.73646       -0.82427
H         -3.43341        1.59019        0.01142
H         -4.56648        0.72513        0.81205
