23
1msa2ma_18.log	Energy: -537116.9737686
S          1.38736       -0.45301       -0.10333
O          2.68814       -1.05716       -0.30935
O          0.45330       -0.37210       -1.23471
O          1.56327        0.98150        0.50091
H          0.79250        1.65048        0.14533
C          0.55922       -1.32683        1.21255
H         -0.40358       -0.84508        1.39385
H          0.41908       -2.35744        0.88299
H          1.19392       -1.29333        2.09805
N         -0.29035        2.49220       -0.36184
H          0.03364        3.42732       -0.59056
C         -1.43616        2.52963        0.56292
H         -2.24573        3.17291        0.20226
H         -1.82141        1.51257        0.68030
H         -1.09611        2.90019        1.53254
H         -0.54302        2.03218       -1.23376
N         -2.47158       -0.63591       -0.34799
H         -3.13505       -0.22305       -0.99538
C         -2.94175       -1.95561        0.06970
H         -3.05394       -2.68209       -0.74800
H         -2.24037       -2.37769        0.79572
H         -3.90729       -1.85673        0.57360
H         -1.58240       -0.70712       -0.84069
