29
1msa2dma_29.log	Energy: -586437.8654868
S         -1.47950       -0.65915        0.01618
O         -0.97986       -1.46167        1.13525
O         -0.47304       -0.37795       -1.03896
O         -2.11755        0.64167        0.46457
H         -1.09675        1.69602        0.46196
C         -2.81026       -1.56095       -0.75507
H         -3.57875       -1.74141       -0.00331
H         -3.20259       -0.96498       -1.57876
H         -2.40096       -2.50340       -1.12000
N          2.40033       -1.32182       -0.45757
C          3.27661       -0.31224       -1.00242
C          2.60688       -1.58089        0.95077
H          1.42444       -1.12230       -0.66115
H          4.31711       -0.65728       -0.96196
H          3.02660       -0.12909       -2.05139
H          3.24092        0.65911       -0.46444
H          3.57136       -2.08105        1.10334
H          2.61479       -0.66582        1.57810
H          1.81255       -2.23136        1.32222
N         -0.24558        2.39762        0.45505
C          0.08144        2.72525       -0.95273
C          0.86706        1.73509        1.17854
H         -0.53401        3.23623        0.95569
H          0.25635        1.77985       -1.46862
H         -0.77301        3.23100       -1.40315
H          0.96574        3.36468       -0.99081
H          1.13043        0.83321        0.62540
H          1.72515        2.40692        1.24088
H          0.52263        1.45156        2.17317
