25
1msa1a1eda_36.log	Energy: -571858.5489307
S          1.81781       -0.48423       -0.00407
O          0.84224       -0.19197       -1.11377
O          2.22848       -1.88559        0.06929
O          1.29004        0.07514        1.28202
C          3.27039        0.47933       -0.39552
H          3.66613        0.11868       -1.34537
H          2.98999        1.53083       -0.46829
H          3.99819        0.32917        0.40244
H         -2.86725        0.63485        1.53166
H         -2.05041        1.62880        0.29172
H         -4.33420        0.85290       -0.48226
H         -3.04297        0.20230       -1.49337
H         -4.54981       -1.29410        0.51694
H         -4.18141       -1.71435       -1.02104
H         -0.58709       -0.14114        1.22581
H         -1.66946       -1.26440        0.55555
C         -2.44892        0.63671        0.52070
C         -3.48288        0.16011       -0.49170
N         -1.30866       -0.30711        0.49948
N         -3.83696       -1.22970       -0.20154
H         -0.71085       -0.23268       -0.36464
N          0.02624        2.61110       -0.09113
H          0.34787        2.10587       -0.91371
H          0.57131        2.24046        0.68498
H          0.25292        3.59285       -0.20420
