33
1msa2eda_20.log	Energy: -655917.7735456
S         -0.34681        1.77089        0.11559
O          0.29119        1.22886        1.34001
O         -1.78051        2.06163        0.25570
O         -0.06421        0.87287       -1.06652
H         -0.50716       -0.66877       -0.65810
C          0.49256        3.29768       -0.27001
H          0.33015        3.98766        0.55850
H          1.55503        3.08260       -0.38953
H          0.06867        3.69806       -1.19120
H         -1.90172       -2.30443        1.39690
H         -1.52937       -0.56191        1.47260
H         -3.89815       -0.94077        0.75115
H         -2.94036       -0.11995       -0.47680
H         -3.84067       -2.90518       -0.55300
H         -3.83558       -1.78884       -1.74608
H          0.22237       -1.77754        0.35184
H         -0.96090       -2.29439       -0.82842
C         -1.80199       -1.38596        0.81000
C         -3.07664       -1.07623        0.03671
N         -0.68974       -1.57879       -0.15199
N         -3.31416       -2.13454       -0.94986
H          2.22097       -2.05737       -1.31952
H          3.96278       -1.78119       -1.24570
H          3.19497       -2.78173        0.81465
H          3.82182       -1.14514        1.11251
H          1.69529       -1.67191        2.23465
H          1.53911       -0.37878        1.26523
H          3.19730        0.19926       -2.06175
H          1.89614        0.29424       -1.08336
C          3.00322       -1.43642       -0.84521
C          3.00271       -1.71474        0.65346
N          2.86759       -0.01346       -1.12775
N          1.70307       -1.39192        1.25855
