28
1msa1ma1eda_70.log	Energy: -596520.1932714
S         -1.64293       -0.12344       -0.14992
O         -1.53376       -1.49642       -0.67767
O         -1.21809        0.93671       -1.08354
O         -0.94742       -0.00575        1.18817
H          0.29489       -0.89406        1.27706
C         -3.36504        0.17591        0.21269
H         -3.70720       -0.58360        0.91566
H         -3.45730        1.17282        0.64389
H         -3.91648        0.11004       -0.72556
H          2.23189       -2.91080        0.16786
H          0.53132       -2.60404       -0.33932
H          2.34817       -1.53738       -1.85281
H          1.08062       -0.46382       -1.26690
H          3.85697       -0.34307       -0.57877
H          2.63597        0.79275       -0.41662
H          1.16908       -2.11972        2.09464
H          2.00214       -0.81385        1.40570
C          1.46085       -2.15138        0.00867
C          1.94502       -1.05844       -0.95469
N          1.20851       -1.47582        1.31001
N          2.90443       -0.19126       -0.27338
N          1.39071        2.33726       -0.54013
H          1.68077        3.12824       -1.10522
C          1.11631        2.75834        0.83572
H          0.44150        3.62231        0.91090
H          0.64043        1.92636        1.36154
H          2.05312        3.00677        1.34566
H          0.52674        1.97196       -0.94442
