33
1msa2eda_88.log	Energy: -655912.0037529
S          0.12770        1.73186       -0.01130
O         -0.00257        0.74840       -1.10718
O          1.26061        1.49182        0.89790
O         -1.17838        1.88952        0.73006
H         -1.91846        0.61136        1.01542
C          0.39581        3.32597       -0.76905
H          1.33527        3.27459       -1.32036
H         -0.43465        3.53453       -1.44353
H          0.45371        4.07534        0.02044
H          1.15180       -1.19789        1.09462
H          1.57689       -2.91270        1.10048
H          3.51739       -1.52955        1.59492
H          3.75994       -2.42395        0.08663
H          2.86812        0.37647        0.14169
H          4.39504       -0.12912       -0.21845
H          1.03628       -1.17701       -1.19223
H          1.66646       -2.67228       -1.37211
C          1.70345       -1.97222        0.54935
C          3.18905       -1.60314        0.54316
N          1.07988       -2.10361       -0.76780
N          3.41758       -0.39469       -0.23619
H         -4.21903       -1.16458        0.28629
H         -3.65429        0.33095       -0.50813
H         -3.00082       -1.83615       -1.74866
H         -1.64296       -0.77328       -1.32417
H         -2.22056       -3.34977       -0.14933
H         -0.76946       -2.54226       -0.37278
H         -3.12750       -0.06954        2.00922
H         -1.96825       -1.10243        1.34901
C         -3.33839       -0.59287       -0.02073
C         -2.41419       -1.43313       -0.91515
N         -2.55136       -0.25509        1.19303
N         -1.76036       -2.44921       -0.09761
