33
1msa2eda_94.log	Energy: -655912.1381591
S          1.70686       -0.81167       -0.19082
O          2.42150        0.33485       -0.78274
O          0.72187       -1.46342       -1.07269
O          1.09626       -0.42963        1.14043
H          0.78562        1.06669        1.27899
C          2.92498       -2.05201        0.21263
H          3.39720       -2.36684       -0.71827
H          3.65827       -1.61108        0.88791
H          2.41562       -2.89052        0.68778
H          0.60473        3.90653        0.30697
H          1.75918        2.62818       -0.21235
H         -0.24555        3.02622       -1.80669
H          0.05210        1.36515       -1.30211
H         -2.21741        2.97745       -0.59841
H         -2.00503        1.31848       -0.63354
H          0.83201        2.52232        2.18165
H         -0.59255        2.06156        1.38749
C          0.73566        2.84100        0.09805
C         -0.27384        2.34731       -0.94767
N          0.44456        2.08989        1.34809
N         -1.59762        2.21940       -0.34080
H         -1.69584       -2.50778        0.65584
H         -3.29828       -2.32436        1.35983
H         -3.38166       -2.28389       -1.07151
H         -3.99920       -0.78392       -0.37230
H         -1.20464       -0.95296       -1.27976
H         -2.42322       -0.50526       -2.27635
H         -1.01048       -0.53953        1.40532
H         -2.50709        0.14013        1.51389
C         -2.50700       -1.78945        0.81836
C         -3.08284       -1.36850       -0.53718
N         -1.98028       -0.71622        1.65376
N         -2.14271       -0.54512       -1.30196
