28
1msa1ma1eda_98.log	Energy: -596515.6414533
S         -1.67893       -0.33141       -0.11436
O         -0.78803       -1.27683       -0.83425
O         -1.91037        0.94347       -0.80813
O         -1.20574       -0.15015        1.30740
C         -3.27181       -1.12661        0.02854
H         -3.66574       -1.27265       -0.97765
H         -3.13957       -2.08409        0.53264
H         -3.92622       -0.47297        0.60549
H          1.60084        0.66359        0.33625
H          2.54975        0.24574        1.78684
H          3.86827        0.22138       -0.36196
H          3.91063       -1.35119        0.45087
H          2.05283       -0.73076       -1.74766
H          3.31887       -1.78276       -1.79979
H          0.23885       -0.81468        1.43287
H          0.95373       -1.69081        0.23811
C          2.15389       -0.13796        0.84449
C          3.25604       -0.64659       -0.07694
N          1.17943       -1.22212        1.13287
N          2.63597       -1.34997       -1.19112
H          1.53171       -1.91031        1.79376
N          0.73616        2.35654       -0.72838
H          1.09244        3.00118       -1.42592
C          0.37799        3.07470        0.49635
H         -0.34246        3.89074        0.34653
H         -0.07426        2.36559        1.19613
H          1.27849        3.49160        0.96084
H         -0.10958        1.92869       -1.10613
