33
1msa2eda_138.log	Energy: -655907.0346497
S          0.23573        1.26436       -0.08188
O          1.50721        1.96422       -0.34161
O          0.02429        0.89443        1.33604
O          0.08797        0.03590       -0.96155
H          0.79444       -1.08948       -0.18159
C         -1.09279        2.34149       -0.57318
H         -0.98076        3.27490       -0.02033
H         -1.00651        2.51858       -1.64544
H         -2.03184        1.84587       -0.31549
H          3.28633       -2.72160        0.25167
H          2.41760       -2.48303       -1.29029
H          4.41910       -0.90721       -0.97106
H          2.88148       -0.07816       -1.25056
H          4.45207        0.06441        1.11061
H          3.10564        0.93278        0.66845
H          0.96105       -2.52898        0.76177
H          1.73466       -1.10553        1.20803
C          2.69129       -2.02063       -0.33990
C          3.43701       -0.69354       -0.53680
N          1.45234       -1.70886        0.41665
N          3.51302        0.00245        0.74231
H         -4.41464       -1.60538       -0.25532
H         -3.02501       -2.61589       -0.61485
H         -2.86834       -1.88518        1.69642
H         -1.56654       -1.14255        0.75108
H         -3.88068        0.24016        1.81648
H         -2.28124        0.64622        1.82818
H         -3.41338        0.17394       -1.39311
H         -2.02801       -0.62865       -1.64514
C         -3.32637       -1.58288       -0.39614
C         -2.64991       -1.14471        0.90801
N         -3.03530       -0.75374       -1.55759
N         -3.02124        0.21873        1.27945
