31
1msa1dma1eda_71.log	Energy: -621178.3935596
S          1.87234        0.13358       -0.05754
O          1.17170        0.19868        1.24449
O          1.18422        0.86676       -1.13960
O          2.16096       -1.29766       -0.43089
C          3.47409        0.89085        0.14820
H          4.00276        0.36756        0.94485
H          4.01234        0.80817       -0.79609
H          3.31676        1.93743        0.41024
H         -0.68965       -1.08608       -1.18592
H         -0.91723       -2.80789       -1.54705
H         -3.08883       -1.57376       -1.07707
H         -2.82755       -2.92821        0.02941
H         -2.26265       -0.10131        0.63151
H         -3.31840       -1.11872        1.42856
H          0.89949       -2.09077        0.07452
H         -0.38265       -1.73215        1.12869
C         -1.02741       -2.04224       -0.77724
C         -2.45702       -1.93424       -0.25180
N         -0.10557       -2.35031        0.34819
N         -2.44260       -1.07595        0.92240
H         -0.17875       -3.31648        0.65849
N         -1.60356        1.60492       -0.12150
C         -1.39411        2.34016        1.11991
C         -2.41840        2.33684       -1.07807
H         -0.68958        1.40812       -0.53152
H         -2.34845        2.45209        1.64929
H         -0.70020        1.77742        1.74822
H         -0.97947        3.34883        0.95578
H         -3.43398        2.45879       -0.68296
H         -2.02331        3.34156       -1.30432
H         -2.48386        1.77702       -2.01555
