23
1msa2ma_03.log	Energy: -537129.7789433
S         -1.34477       -0.06323       -0.03187
O         -0.93647       -1.19355       -0.92233
O         -1.22443        1.25705       -0.68400
O         -0.63399       -0.13516        1.27831
C         -3.07722       -0.31112        0.31509
H         -3.19742       -1.28452        0.79057
H         -3.40526        0.48746        0.98081
H         -3.61894       -0.27215       -0.63010
N          1.60057       -1.16075        0.04132
H          1.13163       -1.01238        0.94649
H          0.80192       -1.47275       -0.55251
C          2.75035       -2.07510        0.07896
H          3.16800       -2.17144       -0.92365
H          3.51304       -1.67687        0.74922
H          2.43395       -3.05680        0.43312
H          1.82747       -0.16793       -0.30847
N          1.74244        1.49395       -0.68382
H          2.34098        1.89905       -1.39629
C          1.84461        2.24448        0.57610
H          1.64613        3.31555        0.45599
H          1.10862        1.83788        1.27454
H          2.84451        2.12104        1.00384
H          0.77333        1.55687       -1.01293
