28
1msa1ma1eda_04.log	Energy: -596524.7215774
S          1.71460        0.13542        0.00657
O          1.40740       -0.54316        1.28444
O          1.24927        1.53917       -0.04915
O          1.24295       -0.65852       -1.17901
H         -0.37501       -0.57495       -1.38051
C          3.49253        0.17438       -0.14342
H          3.86030       -0.85171       -0.12840
H          3.74514        0.66354       -1.08415
H          3.88668        0.73721        0.70296
H         -3.12628       -1.49811       -0.65797
H         -2.00957       -2.48216       -1.63621
H         -1.87606       -3.15738        0.69130
H         -0.34070       -2.45080        0.18077
H         -1.83895       -1.65535        2.34253
H         -0.52059       -0.90331        1.70928
H         -1.75250       -0.24751       -2.29531
H         -1.63247        0.38215       -0.71606
C         -2.07326       -1.71907       -0.85454
C         -1.38594       -2.21693        0.41583
N         -1.43112       -0.47841       -1.35828
N         -1.46198       -1.24029        1.50024
N         -1.68835        1.65367        0.31637
H         -1.99538        1.19401        1.16993
C         -2.39310        2.91138        0.07466
H         -2.27729        3.64004        0.88665
H         -2.00921        3.36640       -0.84212
H         -3.46125        2.72052       -0.06465
H         -0.67859        1.80750        0.40308
