29
1msa2dma_42.log	Energy: -586426.6740292
S          1.90110       -0.10314       -0.03164
O          1.48098       -0.08956        1.35450
O          1.42006       -1.15654       -0.91953
O          3.52758       -0.18727       -0.07172
H          3.76878       -1.04623       -0.44746
C          1.64467        1.49336       -0.74544
H          0.55476        1.66887       -0.69759
H          2.18782        2.21891       -0.13917
H          2.01438        1.47419       -1.77032
N         -1.49942        1.54379       -0.13512
C         -2.56902        2.19875       -0.86759
C         -1.48602        1.89853        1.27558
H         -1.59971        0.52590       -0.21839
H         -2.39640        3.28125       -0.89886
H         -2.58848        1.83195       -1.89800
H         -3.56730        2.03400       -0.42391
H         -1.27117        2.96799        1.39119
H         -2.44480        1.69599        1.78493
H         -0.69742        1.33757        1.78507
N         -1.59584       -1.50779       -0.15996
C         -2.64831       -2.18634       -0.89728
C         -1.58661       -1.83836        1.25794
H         -0.68724       -1.71623       -0.56379
H         -3.62523       -1.82715       -0.55406
H         -2.56007       -1.95679       -1.96265
H         -2.63162       -3.28301       -0.77411
H         -2.49524       -1.44660        1.72950
H         -1.54596       -2.92398        1.45055
H         -0.72311       -1.36720        1.73365
