25
1msa1a1eda_67.log	Energy: -571843.4048312
S         -1.99751        0.01835        0.10654
O         -1.27049       -0.70218        1.13567
O         -3.03069        0.97455        0.46799
O         -2.71742       -1.10462       -0.83750
H         -3.66549       -0.91121       -0.84563
C         -0.84409        0.72070       -1.03329
H         -0.28073        1.49581       -0.49273
H         -0.16748       -0.07762       -1.34742
H         -1.40108        1.14146       -1.87021
H          4.00838       -1.36328       -0.08614
H          3.94000        0.08529        0.92692
H          2.33597       -1.55589        1.73618
H          1.47022       -0.14791        1.11090
H          1.74734       -2.69569       -0.29522
H          0.38432       -1.94516        0.22032
H          3.90988        0.58061       -1.48827
H          2.43885       -0.14211       -1.57168
C          3.38145       -0.49697        0.18541
C          2.08984       -1.00148        0.81813
N          3.07355        0.36260       -0.95780
N          1.31877       -1.78729       -0.14648
N          1.38752        2.62768        0.37922
H          2.06293        2.01256       -0.08533
H          1.51130        2.54524        1.38284
H          1.59237        3.58797        0.12549
