28
1msa1ma1eda_100.log	Energy: -596515.3394995
S         -1.62728       -0.25581        0.10562
O         -1.35626        0.35458       -1.21224
O         -1.07763        0.49207        1.25219
O         -1.19984       -1.70565        0.12376
H          0.12122       -1.89308       -0.57396
C         -3.39796       -0.31442        0.31847
H         -3.82667       -0.87631       -0.51124
H         -3.61136       -0.80097        1.27017
H         -3.76738        0.71153        0.32026
H          2.69793       -0.67994       -1.55338
H          1.14516        0.14667       -1.23194
H          2.74960        0.44985        0.65737
H          1.27990       -0.38608        1.14423
H          3.92332       -1.59311        0.83978
H          2.78577       -1.85869        1.98262
H          0.99120       -2.25242       -2.00456
H          1.66605       -2.64659       -0.51470
C          1.81204       -0.65398       -0.91159
C          2.19535       -0.48795        0.55358
N          1.10629       -1.96096       -1.03767
N          2.92526       -1.68390        0.99492
N          0.81298        2.43282       -0.28475
H          0.13863        2.38372       -1.04342
C          1.17280        3.81708        0.00222
H          0.32752        4.46364        0.28481
H          1.89974        3.84300        0.82037
H          1.65640        4.26110       -0.87368
H          0.32431        2.01243        0.50394
