26
1msa1ma1dma_34.log	Energy: -561776.8247405
S          1.47039       -0.58561        0.04057
O          2.15398       -1.86735       -0.03707
O          0.96486       -0.16289        1.35232
O          0.28107       -0.52759       -0.98953
H         -0.64828       -0.83300       -0.53163
C          2.52493        0.68680       -0.61129
H          3.42691        0.69211        0.00220
H          2.76604        0.43286       -1.64352
H          1.99157        1.63816       -0.53583
N         -1.94909       -1.23397        0.02231
C         -2.99405       -0.96919       -0.97162
C         -2.19223       -0.56643        1.30783
H         -1.88050       -2.23678        0.17865
H         -3.00722        0.10223       -1.18847
H         -2.76380       -1.50505       -1.89472
H         -3.98882       -1.26703       -0.61685
H         -2.20839        0.51365        1.14223
H         -3.14851       -0.87063        1.75154
H         -1.36934       -0.78919        1.98795
N          0.02621        2.71044        0.43379
H          0.10753        1.87616        1.01045
C         -1.07096        2.60197       -0.51965
H         -2.07331        2.51218       -0.06774
H         -1.07992        3.48078       -1.17132
H         -0.90022        1.72524       -1.15101
H         -0.09514        3.50656        1.04882
