20
1msa1a1ma_12.log	Energy: -512460.6610884
S          0.46418        0.42617       -0.08944
O          1.36417        0.97964       -1.08923
O          0.05423       -0.97525       -0.23136
O         -0.83716        1.31231        0.01315
H         -1.68258        0.75002       -0.27392
C          1.19480        0.65563        1.51334
H          0.50113        0.28260        2.26663
H          2.12558        0.08044        1.50198
H          1.38712        1.71998        1.64939
N         -2.83452       -0.18852       -0.63384
H         -3.63560        0.25531       -1.07217
C         -3.22654       -0.93492        0.57073
H         -3.97855       -1.70602        0.37296
H         -2.33258       -1.40684        0.98253
H         -3.62224       -0.23521        1.31019
H         -2.41689       -0.81905       -1.31379
N          3.35130       -1.28571       -0.05930
H          4.24651       -1.75114       -0.15594
H          3.28523       -0.56585       -0.77369
H          2.61896       -1.96117       -0.25598
