25
1msa1a1eda_41.log	Energy: -571858.9415665
S          1.90101       -0.05953        0.00601
O          3.28621        0.37302        0.18011
O          1.16732        0.65033       -1.09840
O          1.07726       -0.02515        1.25924
H          0.01744        1.47954        1.19596
C          1.94351       -1.77660       -0.49041
H          2.50216       -1.84284       -1.42440
H          2.44592       -2.34001        0.29642
H          0.92213       -2.13244       -0.62789
H         -3.32753       -0.44030       -1.60669
H         -1.70599        0.27147       -1.73379
H         -1.61783       -1.96351       -0.70899
H         -1.03636       -0.72657        0.40548
H         -3.60994       -2.10234        0.57570
H         -2.48549       -1.85510        1.73776
H         -3.50283        1.75002       -0.76739
H         -3.44856        0.77696        0.55654
C         -2.48728       -0.02937       -1.02841
C         -1.93134       -1.10436       -0.09864
N         -2.90196        1.13574       -0.22715
N         -2.92362       -1.44135        0.92368
N         -0.38737        2.12464        0.48746
H          0.18573        1.84753       -0.34984
H         -0.25649        3.09799        0.74270
H         -1.40364        1.87522        0.30151
