38
2msa1ma1tma_95.log	Energy: -1003277.6210324
S         -0.67676       -1.09254       -0.13861
O         -0.48663       -0.20448       -1.30611
O         -0.88025       -0.40988        1.13258
O          0.48516       -2.12854       -0.06747
H          1.43883       -1.71789       -0.19380
C         -2.04867       -2.15639       -0.47490
H         -2.93122       -1.50390       -0.49473
H         -1.87744       -2.64520       -1.43343
H         -2.11298       -2.88528        0.33327
S          3.36872       -0.00588        0.11776
O          2.79292       -1.26313       -0.46055
O          2.73808        0.38766        1.38433
O          3.37855        1.10006       -0.89000
H          1.92460        1.81071       -0.93100
C          5.07980       -0.38638        0.42811
H          5.11451       -1.19506        1.15809
H          5.54042       -0.69067       -0.51145
H          5.55621        0.51106        0.82278
N          0.91115        2.12727       -0.87491
H          0.74060        2.83244       -1.58770
C          0.59092        2.61703        0.48967
H         -0.47397        2.84018        0.55476
H          0.85675        1.82915        1.19449
H          1.18281        3.50842        0.69667
H          0.34022        1.28222       -1.09774
N         -4.23972        0.25832        0.04834
C         -3.49217        1.48333       -0.18232
H         -2.51445        1.40098        0.29993
H         -3.33855        1.62674       -1.25627
H         -4.01208        2.37426        0.21995
C         -5.53872        0.30106       -0.59912
H         -5.41189        0.46605       -1.67325
H         -6.05487       -0.65339       -0.45811
H         -6.18584        1.10514       -0.19939
C         -4.35954       -0.02006        1.47125
H         -4.88323       -0.96996        1.61805
H         -3.36225       -0.10414        1.91180
H         -4.91982        0.76850        2.00829
