34
2msa1a1eda_338.log	Energy: -988688.7118715
S         -1.10276        1.73625        0.10425
O         -0.39976        3.01165       -0.14189
O         -0.87394        1.11783        1.40338
O         -0.75851        0.74362       -1.05635
H          0.14744        0.23058       -0.91396
C         -2.83304        1.96265       -0.17530
H         -3.18351        2.67078        0.57667
H         -2.96841        2.36440       -1.17928
H         -3.30436        0.97832       -0.05521
S          2.33046       -0.82120        0.19842
O          3.32998       -1.79677       -0.20293
O          1.37904       -0.47284       -0.93357
O          2.88311        0.45696        0.76074
H          2.56303        1.67973       -0.04604
C          1.32102       -1.52126        1.48569
H          0.81546       -2.39730        1.07281
H          1.98529       -1.80232        2.30343
H          0.60378       -0.76356        1.80579
N          2.28064        2.50796       -0.69703
H          1.31594        2.82201       -0.45798
H          2.27966        2.15301       -1.65189
H          2.94020        3.27664       -0.61369
H         -2.22739       -1.40227       -1.56652
H         -2.82137       -3.03487       -1.23644
H         -2.24270       -2.81249        1.13451
H         -1.51501       -1.22985        0.84420
H         -4.36026       -1.78083        0.40577
H         -3.72310       -0.93870        1.64526
H         -0.70217       -3.49945       -1.88975
H         -0.03395       -2.17208       -1.21684
C         -2.07193       -2.29094       -0.93802
C         -2.31105       -1.90424        0.51783
N         -0.74541       -2.88665       -1.08493
N         -3.58109       -1.18465        0.67055
