32
2msa1a1dma_63.log	Energy: -953965.0636076
S         -2.13216       -1.15975        0.03108
O         -2.01340       -2.57994        0.33883
O         -0.89999       -0.58617       -0.63937
O         -2.51511       -0.28008        1.17156
H         -1.19068        0.57730        1.72598
C         -3.42383       -0.96113       -1.18365
H         -3.15464       -1.54699       -2.06277
H         -4.35141       -1.33090       -0.74569
H         -3.50985        0.09667       -1.43273
S          2.35906       -0.66459       -0.09917
O          1.95631       -0.36144        1.28552
O          2.63506        0.48448       -0.95119
O          1.33750       -1.64064       -0.75684
H          0.35719       -1.26557       -0.71377
C          3.78725       -1.71631       -0.04079
H          3.54569       -2.59295        0.55929
H          4.04229       -1.99493       -1.06291
H          4.59106       -1.13800        0.41535
N         -0.33262        1.14508        1.94417
H          0.50676        0.58129        1.71655
H         -0.31796        1.39355        2.92881
H         -0.34675        2.01913        1.33166
N         -0.42484        3.26400        0.12718
C         -1.38728        2.73715       -0.84703
C          0.91567        3.42834       -0.44503
H         -0.75460        4.16285        0.46590
H         -1.08636        1.72437       -1.13052
H         -2.37563        2.67577       -0.38338
H         -1.45101        3.35872       -1.75167
H          1.31530        2.45112       -0.72995
H          0.91522        4.07559       -1.33392
H          1.58347        3.86090        0.30470
