29
2msa1a1ma_130.log	Energy: -929291.2733084
S          1.77808       -0.16978        0.30723
O          0.85072       -0.57462        1.35283
O          2.63857       -1.18717       -0.29891
O          2.69822        0.99062        0.85778
H          3.71017        0.74678        0.71041
C          0.86219        0.65383       -0.97149
H          0.16610       -0.06991       -1.40054
H          0.30334        1.47125       -0.51583
H          1.56783        1.01893       -1.71766
S         -2.78313       -0.57583       -0.31442
O         -1.95635       -0.98117       -1.43805
O         -4.23860       -0.66396       -0.43347
O         -2.40526        0.92055        0.06374
H         -3.25654        1.47766        0.20722
C         -2.26207       -1.47630        1.12426
H         -2.44882       -2.53167        0.92139
H         -1.19695       -1.28872        1.27856
H         -2.85224       -1.13671        1.97544
N         -4.71085        2.18226        0.31485
H         -4.86965        2.91726       -0.36647
H         -5.01076        2.52095        1.22285
H         -5.28459        1.38034        0.05907
N          5.13750        0.27022        0.37944
H          5.87340        0.61240        0.98928
C          5.43000        0.55992       -1.03129
H          6.38098        0.13552       -1.37054
H          4.62344        0.14204       -1.63711
H          5.45289        1.64200       -1.17861
H          5.05646       -0.73439        0.51735
