42
2msa2eda_161.log	Energy: -1072759.8685074
S         -1.37966       -1.96072        0.47992
O         -0.99733       -2.12946       -0.93152
O         -2.68006       -1.31309        0.71354
O         -0.28882       -1.24877        1.26448
C         -1.46595       -3.58743        1.20747
H         -2.25312       -4.13920        0.69297
H         -0.50116       -4.07713        1.07211
H         -1.69972       -3.47615        2.26616
S          2.51216       -0.58317       -0.64372
O          3.94739       -0.39011       -0.66683
O          1.64661        0.60462       -0.66743
O          2.16329       -1.43667        0.63367
H          1.16760       -1.38387        0.86468
C          2.01954       -1.63236       -1.99010
H          2.22152       -1.09027       -2.91487
H          2.61923       -2.54144       -1.94058
H          0.95451       -1.84996       -1.87255
H         -0.82396        3.28797        2.18340
H         -0.95635        1.77779        3.12495
H          1.27237        2.80635        3.38521
H          1.39434        1.22417        2.61242
H          2.59820        3.31390        1.62026
H          1.89306        2.26042        0.59146
H         -1.84406        1.53152        0.81754
H         -0.44152        1.97710        0.17941
C         -0.45996        2.26238        2.27996
C          1.05339        2.26037        2.46249
N         -0.82820        1.53442        1.05005
N          1.70624        2.92529        1.33960
H         -0.52832        0.54367        1.09426
H         -2.30254        3.21966       -2.16880
H         -1.53258        2.22211       -3.40356
H         -3.23212        0.84403       -2.64165
H         -1.83644        0.23136       -1.76622
H         -3.97132        1.89150       -0.65193
H         -3.44738        0.39782       -0.18590
H          0.23484        1.76410       -1.84609
H         -0.02406        3.37540       -1.74445
C         -1.70296        2.31461       -2.32097
C         -2.50370        1.09651       -1.85818
N         -0.44837        2.46957       -1.57746
N         -3.15136        1.30141       -0.55489
