42
2msa2eda_547.log	Energy: -1072743.6281356
S         -0.00808        2.58891        0.18709
O          0.82907        2.30433        1.37067
O         -1.46385        2.42549        0.42452
O          0.44935        1.82083       -1.01478
C          0.24280        4.31030       -0.22136
H         -0.08800        4.90819        0.62831
H          1.30521        4.46690       -0.40944
H         -0.34413        4.54446       -1.10977
S          3.03610       -1.05801       -0.21040
O          2.75644       -1.82117        0.99179
O          2.12987       -1.15517       -1.34689
O          4.49800       -1.52601       -0.74736
H          4.41329       -1.73987       -1.68749
C          3.34326        0.63055        0.21744
H          2.43038        1.04487        0.66315
H          4.16725        0.64405        0.93112
H          3.58661        1.17055       -0.69706
H          0.45676       -0.55597        1.22807
H         -1.21827       -0.03928        1.37937
H         -0.78935       -2.31354        2.40856
H         -1.99946       -2.38348        1.10444
H          0.82466       -3.14106        0.80571
H         -0.50659       -4.08875        0.59658
H         -0.12227        0.18640       -0.87137
H         -0.26516       -1.50978       -0.95915
C         -0.56634       -0.78909        0.92878
C         -0.94005       -2.21135        1.32495
N         -0.65463       -0.65385       -0.54870
N         -0.15157       -3.14378        0.52069
H         -1.65157       -0.49125       -0.82604
H         -5.50809       -1.07723       -1.19424
H         -5.61051       -1.59316        0.49180
H         -4.98801        0.75849        0.36243
H         -3.68309       -0.18864        1.08714
H         -3.71344        0.71182       -1.70609
H         -2.75082        1.27882       -0.50196
H         -4.40632       -3.24073       -0.67373
H         -3.34826       -2.15955       -1.28443
C         -4.90925       -1.28627       -0.29060
C         -4.22195       -0.00168        0.15262
N         -3.93773       -2.36185       -0.48339
N         -3.24476        0.44694       -0.84394
