30
2msa1eda_112.log	Energy: -953194.6899802
S         -2.52801       -0.25127        0.04568
O         -2.49356        1.14615        0.60161
O         -2.37393       -1.29275        1.07103
O         -1.57257       -0.37133       -1.08969
C         -4.16595       -0.43500       -0.64241
H         -4.23998       -1.43185       -1.07796
H         -4.88930       -0.31587        0.16462
H         -4.30914        0.33018       -1.40552
S          1.92792       -1.67157        0.08938
O          1.71738       -0.23115        0.12074
O          2.83246       -2.28219        1.04812
O          2.51825       -1.99206       -1.39205
H          3.24384       -2.62446       -1.29115
C          0.37101       -2.50384        0.05502
H         -0.22502       -2.07680       -0.75526
H          0.56395       -3.56951       -0.06748
H         -0.14200       -2.29301        0.99619
H          0.12114        3.39178        1.33950
H          0.87115        1.82143        1.69373
H          2.61154        3.54149        1.14368
H          2.59506        2.21606       -0.02561
H          1.53459        4.90831       -0.47865
H          2.52370        4.01755       -1.42975
H         -1.09861        1.75039        0.13841
H         -0.06721        2.56770       -0.97706
C          0.70876        2.57110        0.91876
C          2.02617        3.07525        0.34062
N         -0.09398        1.95419       -0.15819
N          1.74346        3.96477       -0.78670
H          0.29729        1.04090       -0.42433
