31
2msa1tma_35.log	Energy: -943107.3047843
S          1.58661       -1.57163       -0.06493
O          0.59893       -1.32082       -1.11207
O          2.98548       -1.33926       -0.37709
O          1.44133       -3.12611        0.37471
H          2.22228       -3.60039        0.05352
C          1.09663       -0.75098        1.41503
H          1.12960        0.31933        1.15150
H          0.08113       -1.06671        1.66253
H          1.81441       -1.00559        2.19428
S         -2.48927       -0.00745        0.12851
O         -2.17597        1.37057        0.46918
O         -2.11785       -1.05654        1.07004
O         -1.89328       -0.36119       -1.30828
H         -0.97442       -0.72481       -1.22178
C         -4.21661       -0.13214       -0.26315
H         -4.76136        0.12380        0.64618
H         -4.44109        0.57850       -1.05816
H         -4.42958       -1.15511       -0.57070
N          1.45505        2.12659        0.04721
C          0.88108        3.13934        0.91980
H         -0.19333        2.96626        1.02162
H          1.33992        3.07448        1.91182
H          1.04136        4.16349        0.53321
C          2.89807        2.26712       -0.06095
H          3.35417        2.19590        0.93176
H          3.30253        1.45976       -0.67782
H          3.19331        3.23518       -0.50772
C          0.82444        2.14873       -1.26479
H          1.21698        1.33275       -1.87817
H         -0.25388        2.01311       -1.15324
H          1.00445        3.10340       -1.79424
