37
2msa1ma1eda_458.log	Energy: -1013351.2113049
S          2.23935       -1.04625        0.15680
O          2.17877       -1.25408       -1.30743
O          0.94526       -1.31087        0.83612
O          2.78085        0.29878        0.52599
C          3.41380       -2.22942        0.79458
H          3.04398       -3.22912        0.56539
H          4.37314       -2.05298        0.30788
H          3.49467       -2.08494        1.87198
S         -2.67883       -0.60245       -0.47209
O         -2.13217        0.59955        0.14058
O         -3.85358       -0.51175       -1.32298
O         -3.06137       -1.59286        0.75812
H         -3.92804       -1.97939        0.56796
C         -1.37173       -1.47916       -1.27388
H         -0.98241       -0.80391       -2.03923
H         -0.59064       -1.68034       -0.53215
H         -1.78486       -2.38841       -1.70999
N         -1.00402        1.95276        2.60441
H         -1.22932        2.67727        3.27752
C         -0.40569        0.78394        3.26925
H         -1.06754        0.31851        4.00956
H         -0.14202        0.03403        2.51773
H          0.51737        1.08930        3.76893
H         -1.86941        1.67869        2.14458
H         -0.24862        3.26565       -1.03324
H          1.33340        3.66035       -0.31397
H          1.50602        3.02320       -2.74304
H          2.45254        1.97428       -1.68283
H          0.49679        1.14928       -3.44338
H          1.22950        0.22876       -2.28457
H          0.02368        2.13265        1.13675
H         -0.09787        1.09444       -0.13710
C          0.72996        2.86437       -0.75777
C          1.43148        2.25060       -1.97100
N          0.51463        1.81608        0.26074
N          0.69488        1.08289       -2.45369
H          1.41397        1.33752        0.50520
