43
2msa1eda1tma_206.log	Energy: -1062673.5397675
S          1.35907        0.50958        1.22388
O          1.01770        0.20854       -0.19362
O          0.93064        1.83247        1.68408
O          2.83514        0.25061        1.44922
H          3.48025       -0.14703        0.18488
C          0.52358       -0.71246        2.22012
H         -0.54996       -0.67438        2.01189
H          0.91619       -1.69456        1.95316
H          0.72945       -0.49268        3.26806
S         -2.80376       -1.70024       -0.19808
O         -3.70987       -2.84617       -0.21574
O         -2.63006       -1.03551        1.12175
O         -3.12997       -0.65761       -1.24649
H         -3.31849        0.67692       -0.55226
C         -1.18525       -2.30207       -0.66904
H         -0.89136       -3.06155        0.05779
H         -1.26987       -2.74521       -1.66225
H         -0.48336       -1.46492       -0.66459
H         -1.89182        2.66260        1.18463
H         -1.38586        1.04454        0.66713
H         -0.28413        2.78174       -0.71213
H         -1.34738        1.76167       -1.68621
H         -1.91256        4.50890       -0.84883
H         -2.06115        3.84009       -2.33128
H         -3.79330        1.24885        0.94638
H         -3.80455        2.33727       -0.34868
C         -1.91555        1.94186        0.36380
C         -1.33160        2.52988       -0.90732
N         -3.32331        1.55092        0.09462
N         -2.16660        3.65819       -1.34042
N          3.96962       -0.45098       -0.74696
C          3.74581        0.64378       -1.71954
H          2.66913        0.78195       -1.82328
H          4.18931        1.55764       -1.32206
H          4.20819        0.38541       -2.67599
C          5.40196       -0.64342       -0.44004
H          5.81035        0.29219       -0.05637
H          5.49860       -1.41501        0.32464
H          5.93852       -0.94378       -1.34389
C          3.31621       -1.70734       -1.18151
H          3.45582       -2.46074       -0.40483
H          2.25166       -1.50585       -1.30358
H          3.76385       -2.05033       -2.11814
