41
2msa1dma1tma_121.log	Energy: -1027936.6758593
S          2.79164       -1.24943       -0.37747
O          3.22801        0.13522       -0.58303
O          1.81741       -1.78492       -1.31812
O          2.30899       -1.44661        1.10240
H          1.41196       -0.94923        1.29657
C          4.22950       -2.29301       -0.35387
H          4.68122       -2.22727       -1.34412
H          4.91465       -1.92539        0.40933
H          3.91115       -3.31311       -0.14131
S         -1.06977       -0.23503        0.82124
O         -2.24180        0.10523        1.62909
O          0.20610       -0.21179        1.62694
O         -0.89743        0.63826       -0.38652
H          0.25490        1.69586       -0.19938
C         -1.25972       -1.88799        0.19692
H         -1.28092       -2.56400        1.05299
H         -2.21380       -1.91657       -0.33820
H         -0.41410       -2.10369       -0.45881
N         -4.38015       -0.83979       -0.44155
C         -5.72597       -1.36139       -0.29794
C         -4.27123        0.18332       -1.46710
H         -4.04399       -0.46749        0.44289
H         -6.01799       -1.88220       -1.21738
H         -5.75692       -2.08603        0.52046
H         -6.48496       -0.58195       -0.10147
H         -4.44942       -0.26417       -2.45223
H         -4.99411        1.01025       -1.33942
H         -3.25994        0.59852       -1.45794
N          0.81411        2.60157       -0.13054
C          1.75442        2.50495        1.01461
H          1.19148        2.21163        1.90076
H          2.49587        1.73996        0.78608
H          2.23403        3.47659        1.15895
C          1.52067        2.77323       -1.42294
H          2.21251        1.93943       -1.54581
H          0.78141        2.76627       -2.22460
H          2.05963        3.72399       -1.41534
C         -0.21345        3.64544        0.09158
H         -0.92644        3.61842       -0.73242
H         -0.73810        3.42459        1.02166
H          0.26877        4.62407        0.14943
