35
2msa1a1tma_71.log	Energy: -978615.8738009
S          3.50009       -0.55975       -0.06311
O          3.02395       -1.38671        1.03085
O          4.93381       -0.53906       -0.36203
O          3.03081        0.93962        0.18950
H          3.83191        1.57653        0.13122
C          2.60017       -0.98219       -1.53273
H          2.81170       -2.03228       -1.73809
H          1.53131       -0.82966       -1.35436
H          2.95980       -0.35008       -2.34439
S         -1.23519       -0.27560        0.25525
O         -0.53292       -0.53558       -1.00978
O         -2.11812       -1.37362        0.71293
O         -2.02464        1.02249        0.20771
H         -3.43576        0.69497       -0.02045
C         -0.00148       -0.01244        1.51120
H          0.61267       -0.91135        1.58123
H          0.62137        0.83056        1.21093
H         -0.50916        0.18815        2.45469
N          5.23949        2.38734        0.03072
H          5.55993        2.78954        0.90543
H          5.33396        3.08845       -0.69627
H          5.83803        1.59505       -0.19748
N         -4.48542        0.42133       -0.20851
C         -5.00642       -0.15446        1.05203
H         -4.34757       -0.97645        1.33576
H         -4.98012        0.61443        1.82492
H         -6.03274       -0.50044        0.90124
C         -5.19573        1.65302       -0.60430
H         -5.11162        2.38520        0.19962
H         -4.72889        2.05638       -1.50353
H         -6.24886        1.43167       -0.79775
C         -4.46176       -0.58634       -1.29573
H         -3.98231       -0.14471       -2.16998
H         -3.86751       -1.43495       -0.95410
H         -5.48494       -0.88873       -1.53458
