35
2msa1ma1dma_94.log	Energy: -978626.6446683
S          2.44134        0.13925       -0.19146
O          2.24894        1.50966        0.28741
O          1.87551       -0.18007       -1.50187
O          1.96154       -0.89029        0.88236
H          0.90244       -0.91013        0.92825
C          4.18130       -0.21554       -0.20228
H          4.63799        0.46692       -0.91963
H          4.57453       -0.04417        0.79932
H          4.32081       -1.25159       -0.50899
S         -1.40992       -1.82870        0.24126
O         -2.08422       -2.70804        1.18559
O         -0.49556       -0.81564        0.90717
O         -2.30509       -1.09616       -0.69973
H         -1.92061        0.50280       -0.74550
C         -0.33255       -2.82395       -0.77782
H          0.31993       -3.40195       -0.12218
H         -0.96303       -3.48932       -1.36819
H          0.25247       -2.16240       -1.41919
N         -0.40542        2.54806        1.29547
H          0.53350        2.18170        1.12936
C         -0.96873        1.98253        2.53080
H         -0.35735        2.18797        3.41750
H         -1.96742        2.39661        2.69752
H         -1.05877        0.90146        2.40662
H         -0.30784        3.55546        1.37714
N         -1.75691        1.52875       -0.90431
C         -3.06802        2.19006       -1.02089
C         -0.89228        1.68152       -2.09130
H         -1.24476        1.92121       -0.05026
H         -3.61712        1.76733       -1.86394
H         -3.62969        2.01663       -0.10242
H         -2.92600        3.26246       -1.17102
H         -1.39892        1.26317       -2.96318
H         -0.68573        2.74146       -2.25536
H          0.04194        1.14432       -1.91933
