42
2msa2eda_482.log	Energy: -1072747.2491853
S          2.82941        0.35495       -0.00214
O          2.64406        0.10782        1.42341
O          2.33922        1.62561       -0.53364
O          2.26091       -0.83909       -0.84710
H          1.42326       -1.28979       -0.42281
C          4.55584        0.22203       -0.40332
H          5.06165        1.04831        0.09722
H          4.92219       -0.73725       -0.03920
H          4.66663        0.30266       -1.48440
S         -1.04090       -2.26286       -0.53261
O         -1.32551       -3.69109       -0.58826
O          0.26032       -1.93493        0.15564
O         -2.13010       -1.43963        0.09485
H         -1.81144       -1.07336        1.62145
C         -0.88636       -1.63899       -2.19267
H         -0.05290       -2.15402       -2.67246
H         -1.81944       -1.85754       -2.71348
H         -0.71181       -0.56089       -2.12856
H         -2.95007        2.30858       -2.46573
H         -3.21073        3.50176       -1.18568
H         -0.97183        3.79171       -2.01148
H         -0.86869        3.11054       -0.38619
H         -0.35586        1.70593       -2.88162
H          0.55872        1.76148       -1.52433
H         -3.97817        1.33096       -0.48233
H         -2.48770        0.69529       -0.64773
C         -2.66113        2.58749       -1.43829
C         -1.16610        2.88655       -1.41633
N         -2.99069        1.56040       -0.45173
N         -0.39903        1.72635       -1.86751
H         -0.02097        0.15899        3.68081
H          0.48715       -0.73784        2.21326
H          0.49298        1.81955        1.93566
H         -0.46859        0.93794        0.75481
H         -1.46263        2.78052        2.68290
H         -2.24117        2.04829        1.39710
H         -1.67590       -1.49838        3.26099
H         -2.26292        0.02864        2.82248
C         -0.25612       -0.06506        2.63700
C         -0.40832        1.21461        1.81372
N         -1.59119       -0.72673        2.60495
N         -1.63848        1.90216        2.21362
