42
2msa2eda_258.log	Energy: -1072756.0966609
S          1.11942       -1.79748       -0.90239
O          1.02662       -2.89683        0.05858
O          2.38098       -1.02825       -0.87258
O         -0.05647       -0.83879       -0.77713
C          0.96140       -2.48297       -2.54237
H          1.00424       -1.66879       -3.26588
H          1.78868       -3.17739       -2.69153
H          0.00698       -3.00658       -2.60310
S         -3.03495        0.21062        0.14881
O         -3.04593        1.18024       -0.93703
O         -2.31278        0.57406        1.36852
O         -2.53815       -1.19921       -0.36173
H         -1.53393       -1.17063       -0.54421
C         -4.70549       -0.22342        0.56827
H         -5.18017        0.68395        0.94269
H         -5.20434       -0.57709       -0.33352
H         -4.68102       -0.99537        1.33644
H          1.22917        1.27235        3.34603
H         -0.20850        0.22006        3.22697
H          1.82056       -1.05087        3.83690
H          1.15546       -1.60748        2.29873
H          3.68499       -1.06038        2.58059
H          2.94233       -0.69097        1.18380
H         -0.19378        1.65001        1.34219
H          1.40676        1.33295        0.92770
C          0.76397        0.45603        2.78779
C          1.67068       -0.76914        2.79009
N          0.53324        0.93637        1.40783
N          2.96626       -0.46996        2.17904
H          0.20299        0.18032        0.78842
H          1.51540        2.04101       -2.61502
H          0.91430        3.67842       -2.37788
H          3.16318        3.42846       -1.47712
H          1.99828        3.84740       -0.20538
H          2.80805        1.04676       -0.67098
H          3.48964        2.01884        0.46294
H         -0.88551        2.61550       -1.53983
H         -0.08722        1.23580       -1.24198
C          1.15898        2.74972       -1.85168
C          2.30960        3.05278       -0.89311
N         -0.02424        2.24711       -1.15484
N          2.65372        1.87446       -0.09384
