40
2msa1dma1eda_69.log	Energy: -1038034.6873821
S          1.32622        1.80221       -0.66806
O          2.72229        1.42472       -0.92619
O          1.02332        3.22424       -0.47707
O          0.76924        0.98155        0.49687
C          0.37073        1.25302       -2.07970
H         -0.68777        1.44273       -1.89471
H          0.71928        1.80794       -2.95147
H          0.51068        0.17989       -2.21846
S         -2.02642       -1.48633       -0.43124
O         -1.62845       -1.58211        0.99257
O         -0.92319       -1.88502       -1.34946
O         -2.61681       -0.15883       -0.76806
C         -3.33239       -2.67209       -0.70228
H         -4.16179       -2.42429       -0.03956
H         -3.63974       -2.60526       -1.74607
H         -2.94208       -3.66497       -0.47837
N         -1.74889        1.64254        1.11815
C         -1.99968        3.06585        0.81338
C         -2.14299        1.22365        2.47780
H         -2.21831        1.02597        0.41644
H         -1.44626        3.68576        1.51949
H         -1.63287        3.28138       -0.18960
H         -3.06980        3.26846        0.88603
H         -1.55334        1.78105        3.20763
H         -3.20526        1.42758        2.62650
H         -1.95461        0.15304        2.56380
H         -0.72546        1.42977        0.96697
H          2.78336       -2.81297       -0.72018
H          2.69523       -1.11591       -1.26945
H          4.71210       -1.46142        0.14142
H          3.57924       -0.30828        0.84360
H          4.04847       -3.05056        1.76616
H          3.92696       -1.67545        2.64203
H          0.54230       -1.94673       -0.37583
H          1.31951       -2.15032        1.11749
C          2.66085       -1.77412       -0.40000
C          3.72475       -1.36690        0.61070
N          1.32919       -1.63964        0.23211
N          3.56520       -2.16130        1.83073
H          1.12602       -0.62553        0.43910
