40
2msa1dma1eda_482.log	Energy: -1038010.1103902
S         -1.74446       -1.14771       -1.04192
O         -2.67385       -0.39088       -0.14642
O         -0.85760       -2.05708       -0.27719
O         -1.00123       -0.24987       -1.95799
C         -2.79216       -2.17579       -2.05709
H         -2.15267       -2.76935       -2.71086
H         -3.37571       -2.82101       -1.40027
H         -3.44427       -1.52679       -2.64175
S          2.77161       -0.09997       -0.31238
O          3.39568        0.99931       -1.03054
O          1.90394        0.18649        0.82090
O          3.97025       -1.02863        0.27137
H          4.81000       -0.65320       -0.02986
C          1.96096       -1.20562       -1.42414
H          1.10260       -0.67176       -1.84712
H          2.68073       -1.49767       -2.18855
H          1.58504       -2.05555       -0.85338
N         -0.82108        3.20393       -0.01427
C         -2.17517        3.18060       -0.57567
C          0.19382        2.84315       -1.01115
H         -0.62029        4.12911        0.35180
H         -2.42251        2.15386       -0.86286
H         -2.89293        3.50981        0.18060
H         -2.27503        3.82264       -1.46287
H         -0.02376        1.83592       -1.38192
H          0.19871        3.52712       -1.87204
H          1.18456        2.84501       -0.55054
H          0.03052        1.03470        3.34102
H         -1.72581        1.28670        3.27649
H         -1.14439       -0.87710        4.36861
H         -2.12756       -1.10872        2.92723
H         -0.33909       -1.94253        1.74483
H          0.78559       -1.46139        2.86684
H         -0.77815        1.83068        1.10302
H          0.03491        0.37174        1.09470
C         -0.90451        0.66406        2.91019
C         -1.13250       -0.80997        3.27387
N         -0.81707        0.82892        1.44369
N         -0.17610       -1.75171        2.73189
H         -1.62531        0.37934        0.94935
