35
2msa1ma1dma_331.log	Energy: -978611.1103639
S         -2.93999       -0.17089        0.17691
O         -3.97823       -0.86070        0.92205
O         -2.33168       -0.84925       -0.96541
O         -1.78248        0.30165        1.16567
H         -0.99224       -0.32286        1.12579
C         -3.54173        1.41622       -0.34149
H         -4.36231        1.22547       -1.03447
H         -3.90271        1.94625        0.54025
H         -2.71224        1.93952       -0.82855
S          1.15904       -1.42235       -0.08757
O          0.32311       -1.21158        1.12369
O          2.51839       -1.89546        0.22718
O          1.21584       -0.16386       -0.92812
H          2.35202        0.70076       -0.39776
C          0.33868       -2.63281       -1.09282
H          0.30643       -3.56070       -0.52103
H         -0.66785       -2.26117       -1.29375
H          0.91411       -2.76069       -2.00957
N         -0.50907        2.33935       -1.28216
H         -0.18170        1.37661       -1.32923
C         -0.03225        2.98761       -0.07347
H          1.06598        3.11557       -0.00637
H         -0.47253        3.98536        0.01912
H         -0.35780        2.40057        0.78989
H         -0.20552        2.82336       -2.11880
N          3.18527        1.21047        0.07511
C          4.43887        0.57537       -0.39892
C          2.98633        1.11597        1.54400
H          3.14850        2.18697       -0.21413
H          4.36160       -0.49067       -0.17978
H          4.52048        0.72122       -1.47618
H          5.29526        1.02208        0.10931
H          2.97709        0.05838        1.81043
H          3.79464        1.63854        2.05840
H          2.02150        1.55817        1.79213
