30
2msa1eda_131.log	Energy: -953190.3257083
S          2.61630        0.02385       -0.09256
O          2.65156       -1.22666        0.65443
O          1.87728        0.10863       -1.33503
O          4.16563        0.40692       -0.41655
H          4.71975       -0.33160       -0.12654
C          2.15510        1.36949        0.96162
H          1.08372        1.24722        1.16368
H          2.74949        1.31301        1.87315
H          2.34571        2.29786        0.42255
S         -1.85447        1.41870        0.10031
O         -0.89654        0.67864        0.96978
O         -2.67298        2.41117        0.79031
O         -2.66303        0.44093       -0.72294
H         -2.78708       -0.92796       -0.20441
C         -0.86190        2.28036       -1.11050
H         -0.31075        3.06543       -0.59026
H         -0.17669        1.57005       -1.57582
H         -1.53453        2.72136       -1.84644
H         -1.97245       -3.81751       -0.50907
H         -2.05857       -2.56985       -1.78632
H          0.29725       -2.98091       -0.75080
H         -0.24579       -1.30587       -0.80285
H          0.50137       -2.63507        1.45398
H         -0.33348       -1.22841        1.39346
H         -3.75139       -2.34324        0.05068
H         -2.44352       -2.04664        1.06065
C         -1.84028       -2.75565       -0.73302
C         -0.43587       -2.28065       -0.34306
N         -2.80170       -1.98391        0.09584
N         -0.35119       -2.20850        1.11560
