41
2msa1dma1tma_24.log	Energy: -1027948.5740663
S          2.22888        1.49896        0.27403
O          3.34715        2.43914        0.34097
O          2.30785        0.33783        1.19744
O          1.91243        1.03199       -1.12131
H          1.73360       -0.57022       -1.01700
C          0.76759        2.41426        0.77994
H          0.92399        2.77072        1.79916
H          0.64282        3.25902        0.10006
H         -0.07697        1.72480        0.72769
S         -1.09001       -1.44573        0.93348
O         -0.29639       -2.65276        0.62288
O         -2.54216       -1.63619        1.09587
O         -0.80554       -0.37885       -0.10824
H         -1.96471        0.42046       -0.49526
C         -0.44446       -0.78673        2.45727
H         -0.53002       -1.56260        3.21871
H          0.59746       -0.50095        2.28198
H         -1.04042        0.08432        2.73561
N          1.77636       -1.63229       -1.04321
C          3.15717       -2.04318       -0.71865
C          1.29054       -2.08555       -2.35751
H          1.12421       -1.98354       -0.32079
H          3.83146       -1.64968       -1.48112
H          3.41018       -1.60678        0.24765
H          3.21852       -3.13284       -0.68610
H          1.91572       -1.64946       -3.13844
H          1.32702       -3.17517       -2.41100
H          0.26134       -1.74579       -2.47265
N         -2.83127        1.03162       -0.75584
C         -3.32462        1.59963        0.51941
H         -3.55627        0.77185        1.19173
H         -2.53760        2.21813        0.95429
H         -4.21497        2.20599        0.33416
C         -2.36156        2.07471       -1.69270
H         -1.57268        2.65147       -1.20855
H         -1.94822        1.59329       -2.57920
H         -3.19298        2.72749       -1.97098
C         -3.82256        0.11252       -1.36143
H         -3.39568       -0.31067       -2.27136
H         -4.01378       -0.69026       -0.64746
H         -4.73895        0.66012       -1.59673
