42
2msa2eda_156.log	Energy: -1072762.3586281
S         -1.94443        0.98969       -0.75913
O         -3.31492        0.47791       -0.87498
O         -1.30849        0.70088        0.57046
O         -1.80967        2.45208       -1.05716
H         -0.62847        3.14370       -0.31585
C         -0.95086        0.15124       -1.97893
H         -1.05044       -0.92451       -1.82610
H         -1.32872        0.43601       -2.96157
H          0.09548        0.43864       -1.85431
S          2.30256       -1.31419       -0.41815
O          1.23240       -2.15604       -1.01063
O          2.17619       -1.22000        1.06662
O          2.43602        0.01111       -1.06829
H         -0.79796       -0.83469        0.96217
C          3.83877       -2.17332       -0.72812
H          3.78043       -3.15732       -0.26249
H          3.96426       -2.26539       -1.80715
H          4.65174       -1.59066       -0.29402
H          0.81911        4.01838        2.14808
H         -0.48862        2.80410        1.98972
H          1.88723        1.81628        2.35937
H          0.98580        1.19382        0.98173
H          3.32071        2.87983        0.86092
H          2.74782        1.71937       -0.17404
H         -0.15846        4.68240        0.18529
H          1.04530        3.60633       -0.31204
C          0.43109        3.18977        1.54889
C          1.47986        2.08163        1.37838
N          0.13477        3.70941        0.18565
N          2.48870        2.51380        0.41415
H         -1.35706       -3.62508        1.81514
H         -1.58169       -2.23254        2.89599
H         -3.71048       -2.83034        1.69160
H         -3.15941       -1.18676        1.35328
H         -3.24642       -3.36290       -0.52773
H         -3.31101       -1.72128       -0.75401
H          0.41737       -1.82083        1.55630
H         -0.35960       -2.22252        0.18665
C         -1.58623       -2.55671        1.85223
C         -2.92995       -2.24412        1.18918
N         -0.52095       -1.83360        1.12784
N         -2.85330       -2.47398       -0.24741
