34
2msa1a1eda_341.log	Energy: -988686.5076566
S          0.59893        1.30019       -0.31566
O          1.49975        2.38268       -0.68378
O         -0.86018        1.73320       -0.28464
O          0.90652        0.66292        1.01131
H         -0.27976        0.83684        1.96530
C          0.71555        0.00982       -1.52914
H          0.40662        0.43360       -2.48612
H          1.76605       -0.30841       -1.57040
H          0.05714       -0.80870       -1.23184
S         -3.02635       -0.77458       -0.11898
O         -3.25922       -0.27004        1.24987
O         -1.99925       -1.79608       -0.25732
O         -2.77774        0.42176       -1.08619
H         -1.92400        0.98871       -0.78960
C         -4.57147       -1.37905       -0.74567
H         -5.31387       -0.58592       -0.66566
H         -4.42058       -1.67642       -1.78306
H         -4.84800       -2.23774       -0.13328
N         -1.18791        1.08011        2.50303
H         -1.09366        0.92844        3.50301
H         -1.97088        0.51548        2.11056
H         -1.38281        2.06030        2.30616
H          5.29084        0.22401        0.11793
H          3.66322        0.92356        0.05567
H          3.82237       -0.59518        1.94462
H          2.69513       -1.24257        0.75143
H          5.43940       -2.18974        1.17998
H          4.05118       -3.05057        1.25152
H          4.40325        0.10631       -2.12645
H          4.43043       -1.42448       -1.51830
C          4.22824       -0.00396       -0.07976
C          3.75179       -1.03196        0.93722
N          3.99614       -0.50958       -1.43166
N          4.50934       -2.27793        0.78332
