28
2msa1dma_39.log	Energy: -918461.6078832
S         -2.24318       -0.82773       -0.10962
O         -1.79659       -1.63772       -1.24954
O         -3.03628        0.37406       -0.44265
O         -1.08048       -0.44460        0.78887
C         -3.27447       -1.86787        0.91199
H         -4.13874       -2.16403        0.31657
H         -2.69600       -2.74358        1.20714
H         -3.58693       -1.29726        1.78655
S          2.67786       -0.28170        0.15549
O          2.15042        1.03519       -0.17819
O          3.06259       -0.57556        1.52443
O          3.99942       -0.48838       -0.76763
H          4.73723       -0.71344       -0.18268
C          1.59356       -1.51995       -0.48911
H          0.63477       -1.39595        0.02721
H          1.46381       -1.34499       -1.55703
H          2.03855       -2.49558       -0.29590
N         -0.45820        2.03542        0.14556
C         -0.62044        2.20128       -1.31831
C         -1.33434        2.91266        0.94765
H         -0.69109        1.02045        0.40335
H         -0.39255        3.23283       -1.59345
H          0.07029        1.52088       -1.81495
H         -1.64785        1.93885       -1.57274
H         -1.13551        3.95912        0.70859
H         -2.36698        2.65264        0.71033
H         -1.14552        2.72695        2.00515
H          0.53043        2.14550        0.38342
