35
2msa1ma1dma_230.log	Energy: -978619.0316105
S         -1.60243        1.97149        0.04064
O         -2.24075        3.21433       -0.33169
O         -0.65449        1.54242       -1.13925
O         -2.46894        0.83187        0.39781
H         -2.54860       -0.79370       -0.09524
C         -0.49001        2.23797        1.39865
H          0.19376        3.03762        1.11274
H         -1.09422        2.53411        2.25705
H          0.04469        1.30308        1.58734
S          0.64954       -1.57121        0.16428
O         -0.23817       -2.68570        0.61132
O          1.00120       -0.61333        1.22139
O          0.02070       -0.89912       -1.03457
H         -0.33738        0.57058       -1.06283
C          2.15467       -2.30284       -0.42685
H          2.60295       -2.84656        0.40581
H          1.90858       -2.98202       -1.24316
H          2.80732       -1.48532       -0.75635
N         -2.57974       -1.79842       -0.37308
H         -2.35680       -1.82315       -1.36755
C         -3.87739       -2.42397       -0.05092
H         -3.85710       -3.47529       -0.33759
H         -4.04114       -2.34229        1.02291
H         -4.67762       -1.90619       -0.57961
H         -1.75674       -2.25859        0.10421
N          3.89786        0.52284       -0.63089
C          4.32137        0.37816        0.75549
C          2.88825        1.55954       -0.79835
H          4.69991        0.72898       -1.21618
H          3.46414        0.05060        1.35268
H          5.10051       -0.38665        0.82542
H          4.70946        1.31269        1.19670
H          1.99747        1.27714       -0.23102
H          3.21781        2.55224       -0.44396
H          2.60472        1.64043       -1.85056
