42
2msa2eda_32.log	Energy: -1072768.8104985
S         -3.05217       -0.64302       -0.17648
O         -3.37444        0.58832        0.55973
O         -2.82793       -1.85357        0.62967
O         -1.87650       -0.41107       -1.11642
C         -4.43030       -0.98427       -1.25939
H         -5.30661       -1.15737       -0.63402
H         -4.58545       -0.12090       -1.90645
H         -4.19749       -1.87262       -1.84661
S          2.71359        0.48537       -0.46529
O          2.60726       -0.89218       -1.02515
O          2.31851        0.55088        0.95825
O          2.00816        1.49601       -1.30438
C          4.44397        0.90826       -0.55786
H          5.00338        0.18851        0.03997
H          4.75017        0.86395       -1.60303
H          4.56856        1.91541       -0.15984
H         -1.54323        1.87298        1.30567
H          0.18007        1.38677        1.32153
H         -0.11590        3.65458        2.34907
H          0.90065        3.69069        0.90305
H         -1.91035        4.52878        1.00830
H         -0.61200        5.39338        0.50747
H         -1.14008        1.12001       -0.82835
H         -1.00976        2.81126       -0.92486
C         -0.54336        2.10466        0.93077
C         -0.12232        3.53060        1.25850
N         -0.58406        1.95793       -0.54811
N         -1.00560        4.46145        0.55311
H          0.38702        1.84949       -0.92494
H          0.88370       -1.23629        1.26917
H         -0.64394       -2.14676        1.45078
H          1.45852       -3.23140        2.46248
H          0.49433       -4.26648        1.40456
H          2.83285       -2.79997        0.37545
H          2.81212       -4.40510        0.76343
H         -0.59407       -1.46228       -0.74422
H          1.07274       -1.77146       -0.89966
C          0.35119       -2.15350        1.00332
C          1.14773       -3.38536        1.41833
N          0.18306       -2.11310       -0.47873
N          2.23934       -3.61954        0.48145
H         -0.01910       -3.03940       -0.85019
