25
2msa1ma_85.log	Energy: -893785.6651011
S         -2.28783       -0.23165        0.15273
O         -2.39026        1.08691        0.75286
O         -1.63303       -1.29291        0.90924
O         -1.60606       -0.12886       -1.28712
H         -0.62468       -0.24428       -1.21234
C         -3.90212       -0.76706       -0.35919
H         -4.50886       -0.83758        0.54410
H         -4.31099       -0.02034       -1.03952
H         -3.80823       -1.73783       -0.84406
S          2.07350       -0.66331       -0.11284
O          1.06216       -0.37956       -1.12892
O          3.39275       -0.08082       -0.28214
O          2.26167       -2.27419       -0.05637
H          3.12737       -2.48568       -0.43552
C          1.40680       -0.35069        1.48928
H          1.23665        0.73436        1.49869
H          0.47148       -0.90599        1.58514
H          2.14952       -0.65380        2.22666
N          1.40130        2.73775        0.48680
H          1.32433        3.46095        1.19406
C          0.37150        2.91424       -0.54191
H          0.38525        3.89967       -1.02858
H          0.50740        2.15066       -1.31152
H         -0.61313        2.75653       -0.09498
H          2.32917        2.81507        0.08243
