43
2msa1eda1tma_13.log	Energy: -1062691.6869649
S         -2.62907       -1.13799       -0.03970
O         -2.75390       -0.22349        1.13422
O         -2.30857       -2.52813        0.31828
O         -1.68195       -0.57026       -1.05345
C         -4.23364       -1.14577       -0.82070
H         -4.95379       -1.54370       -0.10530
H         -4.48901       -0.12070       -1.09238
H         -4.17949       -1.77883       -1.70652
S          2.76518        1.10691       -0.20221
O          2.00720        2.19308       -0.83883
O          3.36793        0.11119       -1.10427
O          1.91873        0.42091        0.86090
C          4.10566        1.86686        0.70049
H          4.74359        2.37528       -0.02305
H          3.68714        2.58129        1.40957
H          4.66254        1.08704        1.22041
H         -0.80559        3.46557        1.10893
H         -0.15940        3.24604       -0.53256
H         -2.44398        4.14736       -0.68436
H         -2.41707        2.51274       -1.32232
H         -3.43523        1.74782        0.72994
H         -3.47846        3.29708        1.30757
H          0.31507        1.28706        0.74379
H         -1.31914        1.08150        1.13376
C         -0.92605        2.91557        0.17095
C         -2.33665        3.09606       -0.39756
N         -0.65866        1.48425        0.45133
N         -3.44342        2.73130        0.46761
H         -0.83983        0.88879       -0.38140
N          1.64551       -2.21937        0.17891
C          3.04736       -2.69963        0.25729
H          3.65718       -2.07452       -0.39496
H          3.39185       -2.60548        1.28822
H          3.08105       -3.74645       -0.05265
C          0.76679       -2.93025        1.14376
H          1.10494       -2.70200        2.15559
H         -0.27063       -2.62078        0.99942
H          0.84477       -4.00409        0.95926
C          1.11946       -2.28872       -1.21302
H          0.11856       -1.85145       -1.23386
H          1.79380       -1.71701       -1.85138
H          1.08192       -3.33689       -1.51822
H          1.67445       -1.20282        0.44624
