37
2msa1ma1eda_422.log	Energy: -1013350.7336949
S         -1.65293       -1.73234        0.33115
O         -1.14242       -2.74905       -0.59783
O         -2.72529       -0.86119       -0.20603
O         -0.54483       -0.90484        0.93144
C         -2.37767       -2.60130        1.71593
H         -3.20162       -3.20584        1.33572
H         -1.61250       -3.23697        2.16243
H         -2.73928       -1.86785        2.43684
S          2.73609       -0.32835       -0.45593
O          1.87929        0.40086       -1.38469
O          3.04838        0.24722        0.83834
O          4.15385       -0.54929       -1.22234
H          4.05740       -0.22150       -2.12781
C          2.16416       -1.98690       -0.24643
H          1.22066       -1.90713        0.30265
H          1.98889       -2.42314       -1.22913
H          2.92291       -2.53237        0.31449
N         -2.74124        1.44942       -1.92768
H         -2.69357        1.54587       -2.93631
C         -3.91077        2.14788       -1.38872
H         -4.86008        1.82617       -1.83479
H         -3.96654        1.95531       -0.31414
H         -3.80366        3.22607       -1.54020
H         -2.81203        0.45421       -1.70161
H         -1.12166        3.37128        0.75165
H         -1.70287        1.87049        1.52185
H          0.17657        2.87857        2.85121
H          0.60921        1.29928        2.19062
H          1.74947        3.83770        1.45800
H          2.34748        2.30863        1.25481
H         -1.30207        1.65870       -0.92911
H          0.36463        1.89275       -0.55799
C         -0.85120        2.34977        1.03400
C          0.39266        2.33819        1.92181
N         -0.54396        1.58766       -0.19284
N          1.52201        2.89232        1.18058
H         -0.46435        0.57945        0.07615
