43
2msa1eda1tma_01.log	Energy: -1062693.8508873
S         -2.67648       -1.11037       -0.12067
O         -3.17638       -0.15348        0.88838
O         -2.13311       -2.36540        0.42983
O         -1.71625       -0.45815       -1.07693
C         -4.08553       -1.56846       -1.12142
H         -4.50299       -0.66514       -1.56710
H         -3.74894       -2.25919       -1.89476
H         -4.81639       -2.04817       -0.46981
S          2.81387        1.05071       -0.22617
O          2.05501        2.10493       -0.94447
O          3.44850        0.04439       -1.09379
O          1.96452        0.41615        0.84138
C          4.12453        1.89778        0.64018
H          4.74984        2.39408       -0.10235
H          3.67830        2.62691        1.31657
H          4.70282        1.15966        1.19636
H         -0.90275        3.93243       -0.29054
H         -1.57317        3.03038       -1.66994
H         -3.32026        3.86592        0.01758
H         -3.37592        2.12598       -0.30044
H         -2.97768        3.29915        2.18296
H         -2.86582        1.69607        1.78208
H          0.38148        1.96508       -0.54613
H         -0.59570        1.80899        0.80795
C         -1.44213        3.02880       -0.58574
C         -2.77894        2.92417        0.15301
N         -0.60175        1.86982       -0.21623
N         -2.53687        2.63357        1.56353
H         -1.00841        0.96848       -0.57373
N          1.65606       -2.21802        0.34155
C          3.04661       -2.73188        0.36801
H          3.63894       -2.14764       -0.33665
H          3.44699       -2.60842        1.37547
H          3.03939       -3.79047        0.09820
C          0.80927       -2.85671        1.38115
H          1.22429       -2.61597        2.36092
H         -0.21594       -2.49349        1.28502
H          0.82117       -3.93821        1.22577
C          1.05733       -2.32905       -1.01655
H          0.07508       -1.85262       -1.01049
H          1.72069       -1.81787       -1.71515
H          0.96099       -3.38716       -1.27036
H          1.71837       -1.18728        0.55908
