37
2msa1ma1eda_527.log	Energy: -1013350.0938298
S          3.13274        0.18503       -0.12147
O          2.82143        1.32495       -0.96992
O          3.03547       -1.15363       -0.69333
O          2.29917        0.25253        1.22202
H          1.39622       -0.21052        1.14746
C          4.75953        0.41222        0.56070
H          5.45616        0.40834       -0.27827
H          4.78614        1.37207        1.07596
H          4.96950       -0.40921        1.24464
S         -0.68590       -1.54635        0.03540
O          0.00622       -0.89320        1.18320
O         -0.83542       -0.66141       -1.13514
O         -2.00750       -2.11331        0.46299
H         -3.14880       -1.27756       -0.22473
C          0.31512       -2.93746       -0.43982
H          1.29863       -2.55488       -0.71972
H          0.38464       -3.60981        0.41568
H         -0.17145       -3.42950       -1.28224
N         -0.35286        2.35574       -0.79223
H         -0.20602        1.35139       -0.89125
C          0.15313        2.82016        0.50098
H          1.23359        2.68536        0.62386
H         -0.08723        3.88052        0.63042
H         -0.34320        2.26596        1.30347
H          0.18568        2.78159       -1.53962
H         -5.34788        0.57728        0.50074
H         -4.29371       -0.40659        1.55640
H         -3.63678        2.07018        1.50105
H         -2.34867        0.98213        0.97555
H         -3.87339        2.76478       -0.72383
H         -2.27993        2.26570       -0.82569
H         -4.70561       -1.14806       -0.91205
H         -3.57641        0.07388       -1.20543
C         -4.32965        0.21170        0.65790
C         -3.33381        1.37758        0.70691
N         -3.93767       -0.61544       -0.51367
N         -3.24972        1.97331       -0.61893
