38
2msa2dma_188.log	Energy: -1003272.7415439
S         -0.75043        2.04404       -0.32626
O         -2.20747        1.91134       -0.27708
O         -0.06408        1.63069       -1.54262
O         -0.12588        1.34184        0.92876
H          0.19161        0.34938        0.75195
C         -0.33807        3.73604        0.02998
H         -0.75241        4.34224       -0.77616
H         -0.78423        4.00809        0.98614
H          0.74782        3.82310        0.06279
S          0.35474       -1.93293       -0.44794
O          0.65882       -3.31612       -0.10493
O          0.62865       -0.99025        0.70616
O         -1.04724       -1.70744       -0.93942
H         -2.17212       -1.49370        0.02415
C          1.40372       -1.40381       -1.78007
H          2.43103       -1.39086       -1.40652
H          1.28064       -2.11435       -2.59771
H          1.08160       -0.40304       -2.07237
N          3.56955       -0.09654        0.39836
C          3.30240        1.24668       -0.08253
C          4.69871       -0.15851        1.30720
H          2.73541       -0.46825        0.84394
H          4.14389        1.59179       -0.69467
H          2.40755        1.24578       -0.71136
H          3.15320        1.98396        0.72861
H          5.61979        0.09365        0.76894
H          4.61388        0.53383        2.16501
H          4.80598       -1.17526        1.69441
N         -3.02760       -1.38555        0.68031
C         -4.10818       -0.68550       -0.05570
C         -2.60051       -0.70080        1.92519
H         -3.31522       -2.33888        0.89858
H         -3.72936        0.29710       -0.33970
H         -4.35091       -1.26184       -0.94873
H         -4.98722       -0.58937        0.58467
H         -2.34333        0.32787        1.67421
H         -3.41386       -0.72236        2.65287
H         -1.71716       -1.20701        2.31599
