42
2msa2eda_65.log	Energy: -1072769.5732613
S         -2.79933       -0.89884        0.58171
O         -3.41006       -0.13900       -0.51893
O         -1.70774       -0.13861        1.27676
O         -2.31881       -2.25791        0.20725
C         -4.06323       -1.15081        1.81670
H         -4.43192       -0.17430        2.13173
H         -4.86432       -1.73429        1.36221
H         -3.62268       -1.68695        2.65713
S          3.01561        0.35995        0.64255
O          3.28103       -0.27373       -0.66819
O          2.27799       -0.53127        1.57853
O          2.36691        1.69833        0.51873
C          4.60298        0.66336        1.39768
H          5.10603       -0.29609        1.51900
H          5.17424        1.31798        0.73934
H          4.43653        1.13624        2.36557
H          2.25586       -2.49521       -0.58486
H          0.98325       -3.74995       -0.58116
H          1.63702       -2.91386       -2.90022
H         -0.09017       -2.72449       -2.54083
H          1.87596       -0.55032       -2.23281
H          0.65823       -0.64262       -3.36221
H          0.89882       -1.51552        0.89199
H          0.24832       -0.96634       -0.51470
C          1.20976       -2.70826       -0.81191
C          0.91301       -2.37437       -2.27517
N          0.38769       -1.82081        0.04530
N          0.94671       -0.92199       -2.43301
H         -0.56969       -2.17810        0.24731
H          0.23384        2.75180       -1.50414
H         -0.43951        1.11283       -1.54689
H         -2.08823        2.80841       -2.42313
H         -2.68338        1.95648       -0.99484
H         -1.70818        4.72174       -1.07666
H         -3.05226        4.11908       -0.36389
H          0.69494        1.85923        0.56147
H         -0.66336        2.87031        0.77846
C         -0.55058        2.10463       -1.10127
C         -1.94127        2.68119       -1.34294
N         -0.32448        1.99719        0.36076
N         -2.08220        3.92242       -0.57676
H         -0.88258        1.20158        0.75823
