42
2msa2eda_77.log	Energy: -1072768.2609696
S         -2.65948        0.41691       -0.02958
O         -3.00789       -0.78108       -0.81759
O         -2.63596        1.68765       -0.76869
O         -1.35763        0.19740        0.71544
C         -3.89604        0.57636        1.24857
H         -4.85787        0.73967        0.76160
H         -3.91214       -0.34377        1.83313
H         -3.63408        1.42717        1.87778
S          3.08182       -0.57322        0.17264
O          2.75607       -1.81608        0.88862
O          3.13167        0.65531        0.98385
O          2.14927       -0.38449       -1.01419
C          4.70051       -0.78986       -0.54902
H          5.41106       -0.93310        0.26564
H          4.67659       -1.66718       -1.19561
H          4.94792        0.10563       -1.11933
H          0.49081       -3.93204       -0.28176
H          0.54217       -2.94082        1.19056
H         -1.43222       -4.58125        1.08641
H         -1.92049       -2.89910        1.29971
H         -2.79546       -4.52380       -0.71061
H         -2.82495       -2.87433       -0.77747
H          0.84464       -1.57371       -0.80583
H         -0.66376       -2.13110       -1.35955
C         -0.03712       -3.17037        0.29552
C         -1.47023       -3.60711        0.59069
N         -0.09039       -1.94141       -0.53223
N         -2.22811       -3.68931       -0.65621
H         -0.56329       -1.17024       -0.01150
H          1.13430        3.26201       -1.62406
H         -0.47454        2.49364       -1.75631
H         -0.69118        4.82371       -0.92860
H         -1.25560        3.63468        0.24366
H          1.26819        5.12688        0.40549
H          0.12487        4.91732        1.55792
H          1.27877        1.09579       -0.63518
H          1.29791        2.21726        0.58861
C          0.26103        2.91062       -1.06709
C         -0.36062        4.03113       -0.24409
N          0.71311        1.83187       -0.16077
N          0.58806        4.47231        0.77578
H         -0.09714        1.33905        0.27318
