28
2msa1dma_54.log	Energy: -918451.7420915
S          2.26185       -0.12807        0.00870
O          1.44707       -0.44872        1.19138
O          2.34888        1.26248       -0.38726
O          1.78729       -1.04355       -1.19499
H          0.78763       -1.04218       -1.23932
C          3.88559       -0.79783        0.24801
H          4.33767       -0.24189        1.06980
H          3.79112       -1.85473        0.49369
H          4.44835       -0.65154       -0.67376
S         -1.78800       -1.29017       -0.05226
O         -2.29091       -2.64141       -0.15495
O         -0.81481       -0.82879       -1.06141
O         -1.14127       -1.07561        1.38447
H         -0.18446       -0.81699        1.31943
C         -3.12372       -0.13266       -0.02221
H         -3.65031       -0.24400       -0.97130
H         -3.77448       -0.40450        0.80956
H         -2.70615        0.87935        0.09034
N         -1.57864        2.73925        0.08315
C         -0.92939        2.69541       -1.22303
C         -0.62420        2.66875        1.18345
H         -2.11921        3.59402        0.16232
H         -0.45285        1.72012       -1.35440
H         -1.68072        2.81278       -2.00924
H         -0.15463        3.46803       -1.35204
H         -0.10547        1.70700        1.15353
H          0.14667        3.45508        1.14395
H         -1.15402        2.73931        2.13731
