32
2msa2ma_161.log	Energy: -953957.6838076
S          1.55553       -0.84602       -0.54011
O          2.95677       -1.00489       -0.16387
O          0.69998       -0.33257        0.60645
O          0.91281       -2.08480       -1.07958
H         -0.42826       -2.43719       -0.32345
C          1.44319        0.39050       -1.81407
H          1.90651        1.29934       -1.41750
H          1.99806        0.01678       -2.67549
H          0.39125        0.53843       -2.06488
S         -2.24045        0.91239       -0.15745
O         -2.73945       -0.27492        0.56392
O         -2.01294        0.73659       -1.58501
O         -0.97393        1.47475        0.55739
H         -0.20446        0.74787        0.56397
C         -3.37929        2.24325        0.11770
H         -4.31923        1.95875       -0.35572
H         -3.50617        2.37649        1.19134
H         -2.96838        3.13950       -0.34637
N          3.50085        2.03389        0.25090
H          3.82811        1.07755        0.13810
C          2.92808        2.20633        1.58462
H          3.64893        2.09149        2.40839
H          2.47302        3.19855        1.66516
H          2.13871        1.46336        1.72311
H          4.29178        2.65311        0.11326
N         -1.27343       -2.64066        0.29830
H         -1.86223       -1.78466        0.31940
C         -0.80728       -2.96698        1.66711
H         -1.66434       -3.13592        2.31906
H         -0.17565       -3.85422        1.62814
H         -0.22174       -2.11768        2.01776
H         -1.81317       -3.39793       -0.11424
