32
2msa2ma_96.log	Energy: -953961.9605607
S          2.71893        0.33343        0.15912
O          3.84863        1.23744        0.08404
O          2.76673       -0.96205       -0.50693
O          1.44206        1.13209       -0.36014
H          0.75908        0.49936       -0.75591
C          2.32159        0.05499        1.87308
H          3.15459       -0.49882        2.30800
H          2.21450        1.02467        2.35988
H          1.39564       -0.52197        1.91091
S         -0.94107       -1.44578       -0.40492
O         -0.43400       -0.36170       -1.31422
O         -2.36755       -1.72284       -0.61927
O         -0.62281       -1.10959        1.02242
H         -1.61177        0.19865        1.43490
C          0.00969       -2.89456       -0.79650
H         -0.30349       -3.69526       -0.12634
H         -0.19699       -3.15261       -1.83526
H          1.06336       -2.64311       -0.66104
N         -2.36136        0.93703        1.46247
H         -2.15718        1.60372        2.20285
C         -3.68224        0.28899        1.63710
H         -4.47037        1.03800        1.55084
H         -3.77977       -0.46370        0.85298
H         -3.73212       -0.19575        2.61225
H         -2.32194        1.43924        0.49609
N         -2.18635        1.98037       -1.05969
H         -1.75048        1.14864       -1.46837
C         -1.27835        3.12833       -1.20676
H         -1.06234        3.36961       -2.25315
H         -1.71608        4.00950       -0.72960
H         -0.33114        2.89898       -0.71285
H         -3.05394        2.14337       -1.56155
