37
2msa1ma1eda_481.log	Energy: -1013350.2079612
S          1.46300       -1.77543        0.01535
O          2.33094       -0.59070       -0.28793
O          0.84818       -2.37336       -1.17730
O          0.48451       -1.44908        1.09258
C          2.57479       -2.99397        0.70287
H          3.32395       -3.23202       -0.05259
H          3.04329       -2.57288        1.59254
H          1.99204       -3.88016        0.95610
S         -2.60419        0.01332       -0.53106
O         -3.07279        0.43092        0.77491
O         -1.54048        0.76492       -1.19266
O         -3.88129        0.08263       -1.53161
H         -3.58871        0.48178       -2.36363
C         -2.23647       -1.71523       -0.51151
H         -1.43705       -1.84973        0.22409
H         -3.14955       -2.24092       -0.23190
H         -1.86996       -2.00615       -1.49565
N         -0.49097        1.03554        2.49327
H         -1.49040        1.07878        2.30804
C         -0.19297        1.40172        3.87791
H         -0.72037        0.78701        4.61868
H          0.88095        1.29768        4.05551
H         -0.45987        2.44824        4.04911
H         -0.21012        0.07144        2.30203
H          1.00438        3.63788       -0.51594
H          2.18121        3.18959        0.74071
H          3.15556        3.43764       -1.60488
H          3.50608        1.89905       -0.80477
H          2.53323        1.98740       -3.23674
H          2.03272        0.82193       -2.20334
H          0.37567        1.66925        1.08872
H          0.15088        1.49465       -0.55958
C          1.68255        2.85362       -0.17218
C          2.70562        2.50424       -1.25364
N          0.87220        1.65905        0.15208
N          2.04514        1.82723       -2.36477
H          1.46692        0.79564        0.13600
