38
2msa1ma1tma_92.log	Energy: -1003277.4538388
S         -3.01631       -1.07238        0.19377
O         -3.58252        0.23210        0.59213
O         -2.05990       -1.65580        1.12498
O         -2.42915       -0.98071       -1.24417
H         -1.63668       -0.25955       -1.28896
C         -4.36109       -2.19645       -0.07769
H         -4.85186       -2.34311        0.88471
H         -5.04390       -1.75331       -0.80174
H         -3.94680       -3.13386       -0.44791
S          0.70186        0.64485       -0.68417
O          1.72677        1.18694       -1.56755
O         -0.69339        0.74340       -1.28248
O          0.66730        1.26562        0.67851
H         -0.75870        1.81225        1.06510
C          1.01340       -1.08716       -0.43768
H          0.96234       -1.57466       -1.41252
H          2.02255       -1.17231       -0.01486
H          0.25459       -1.48365        0.23974
N         -1.73078        2.23813        1.19661
H         -2.42843        1.48082        1.05460
C         -1.92902        3.31130        0.19303
H         -2.92651        3.73783        0.29891
H         -1.16825        4.07841        0.33659
H         -1.80630        2.85814       -0.79025
H         -1.81414        2.58384        2.14975
N          4.20902       -0.73298        0.38811
C          4.14048        0.55405        1.06222
H          3.51228        1.23725        0.48622
H          3.68970        0.42990        2.05138
H          5.14072        1.01282        1.18725
C          5.01706       -1.67867        1.13376
H          4.60005       -1.81277        2.13675
H          5.01428       -2.65016        0.62978
H          6.06910       -1.34798        1.23887
C          4.68071       -0.58350       -0.97903
H          4.68065       -1.55824       -1.47757
H          4.00904        0.08501       -1.52456
H          5.70754       -0.17214       -1.02701
