32
2msa1a1dma_46.log	Energy: -953969.5573660
S         -2.12934       -1.08387       -0.04602
O         -2.93770       -1.99776        0.73803
O         -1.01032       -0.41036        0.85563
O         -2.79210        0.03832       -0.71522
H         -2.74385        1.77276        0.48366
C         -1.19981       -2.00933       -1.24876
H         -0.70360       -2.83262       -0.73445
H         -1.92156       -2.38068       -1.97721
H         -0.45182       -1.36068       -1.70804
S          2.13160       -0.73555        0.12931
O          2.18898        0.62477        0.73823
O          1.84304       -0.70143       -1.31480
O          1.19803       -1.63099        0.89199
H         -0.16448       -0.98534        0.97380
C          3.74384       -1.45643        0.35467
H          4.46732       -0.82726       -0.16401
H          3.95525       -1.49574        1.42297
H          3.72674       -2.45803       -0.07491
N         -2.24636        2.38903        1.12935
H         -2.15207        1.86483        1.99508
H         -2.83055        3.19678        1.31772
H         -0.63908        2.42379        0.40631
N          0.26597        2.34741       -0.13611
C          1.05139        3.58811        0.00272
C         -0.05892        1.99436       -1.53733
H          0.84249        1.57831        0.27618
H          0.48225        4.42861       -0.39870
H          1.26273        3.75384        1.05930
H          1.99207        3.47892       -0.53868
H         -0.44909        2.87776       -2.04666
H          0.83955        1.62165       -2.03058
H         -0.82402        1.21807       -1.52577
