42
2msa2eda_531.log	Energy: -1072744.3558771
S         -0.90987        2.13518       -0.26943
O         -0.56137        3.50704       -0.60919
O         -0.39894        1.11739       -1.26713
O         -2.37532        1.87522       -0.08263
H         -2.76591        0.43470       -0.76966
C         -0.13836        1.73400        1.28638
H          0.94434        1.80908        1.14945
H         -0.49804        2.45467        2.02184
H         -0.40748        0.71289        1.56140
S          0.54388       -1.86000       -0.31602
O         -0.64754       -2.28261       -1.07685
O          0.29672       -1.51475        1.08137
O          1.25526       -0.69512       -1.07569
H          0.61830        0.13317       -1.13408
C          1.80531       -3.09481       -0.41439
H          1.43601       -3.97450        0.11347
H          1.99075       -3.31457       -1.46536
H          2.68260       -2.66121        0.07860
H          4.84411        0.92742        1.56729
H          5.45838       -0.39439        0.56561
H          4.90986        1.40816       -0.90545
H          3.68186        0.15096       -1.13634
H          3.31109        2.66788        0.29680
H          2.42161        2.05086       -0.92066
H          3.76104       -1.08179        2.23999
H          2.64480       -0.27067        1.36711
C          4.55402        0.17169        0.81742
C          4.06025        0.89528       -0.43013
N          3.53621       -0.75820        1.30513
N          2.95780        1.80087       -0.09580
H         -2.26227       -1.35829        1.29782
H         -3.81405       -2.06128        1.75164
H         -3.62040       -2.42878       -0.58155
H         -4.79032       -1.08807       -0.38777
H         -1.95627       -0.98280       -1.20788
H         -3.26872       -0.48345       -2.08405
H         -3.81201        0.02007        2.76231
H         -3.35504        0.82418        1.40537
C         -3.35278       -1.23140        1.20744
C         -3.75126       -1.39522       -0.25435
N         -3.87179        0.01735        1.75124
N         -2.89532       -0.55027       -1.13944
