35
2msa1ma1dma_272.log	Energy: -978617.3349441
S          1.21199       -1.88539        0.33755
O          0.81693       -3.08349        1.05011
O          1.34401       -0.65176        1.15083
O          0.29819       -1.59432       -0.89685
H         -0.72008       -1.47390       -0.68863
C          2.76001       -2.12335       -0.49389
H          3.49461       -2.35916        0.27695
H          2.64647       -2.95669       -1.18682
H          3.01491       -1.19232       -1.00740
S         -2.63621        0.14235       -0.23751
O         -2.13889       -1.24694       -0.49242
O         -1.78829        1.16265       -0.91439
O         -2.81141        0.43357        1.20377
H         -1.16117        1.32934        1.82200
C         -4.24512        0.20018       -0.99268
H         -4.12553        0.00297       -2.05781
H         -4.86295       -0.56515       -0.52293
H         -4.66239        1.19287       -0.82439
N         -0.27795        1.55286        1.33832
H          0.29551        0.68293        1.33618
C          0.46210        2.70081        1.89305
H          1.37389        2.84711        1.31247
H         -0.15685        3.59574        1.83404
H          0.72043        2.49688        2.93182
H         -0.59762        1.68692        0.35682
N          2.77368        1.26787       -0.79961
C          1.58834        1.66763       -1.53806
C          3.75007        2.33037       -0.65572
H          2.51518        0.88033        0.10221
H          1.85266        1.86897       -2.58143
H          0.84760        0.86459       -1.53062
H          1.11373        2.58809       -1.14480
H          4.15274        2.59515       -1.63930
H          3.33726        3.25624       -0.21125
H          4.58232        1.99102       -0.03327
