28
2msa1dma_48.log	Energy: -918453.8988165
S         -1.20457        1.08430        0.19985
O         -0.50590        1.38965        1.44992
O         -2.64410        1.42350        0.15941
O         -1.02735       -0.38044       -0.20180
H         -2.29660       -1.05385       -0.21987
C         -0.39670        1.99359       -1.10219
H         -0.48126        3.05418       -0.86276
H          0.64937        1.68446       -1.14138
H         -0.90036        1.77236       -2.04343
S          3.13463       -0.43821       -0.18409
O          3.57998       -1.73002       -0.68686
O          2.68537        0.58846       -1.10173
O          4.38341        0.17698        0.66654
H          5.14230       -0.40685        0.52721
C          1.93529       -0.64936        1.09928
H          1.01936       -1.00500        0.62067
H          2.32595       -1.36858        1.81859
H          1.73059        0.31950        1.55641
N         -3.29907       -1.53569       -0.19871
C         -4.11796       -0.95328       -1.28621
C         -3.87067       -1.32258        1.15172
H         -3.15882       -2.53103       -0.36323
H         -4.16193        0.12306       -1.11547
H         -3.62618       -1.15019       -2.23934
H         -5.11759       -1.39305       -1.27994
H         -3.94186       -0.24529        1.30828
H         -4.85229       -1.79559        1.22383
H         -3.18925       -1.74699        1.88971
