32
2msa1a1dma_160.log	Energy: -953947.8563002
S         -2.31869       -1.19251        0.03461
O         -2.84402        0.12318       -0.30673
O         -1.70206       -1.36374        1.34376
O         -1.32611       -1.69845       -1.09800
H         -0.46153       -1.19722       -1.05025
C         -3.59713       -2.40526       -0.18513
H         -4.36659       -2.18228        0.55456
H         -3.99401       -2.31069       -1.19540
H         -3.16889       -3.39228       -0.01474
S          1.86724       -0.02175        0.08492
O          0.88686       -0.29258       -0.97799
O          2.93775        0.90998       -0.25447
O          2.50082       -1.39149        0.54721
H          3.49515       -1.43960        0.25361
C          0.99832        0.51149        1.52428
H          0.43207        1.40508        1.21799
H          0.30799       -0.28223        1.81686
H          1.73280        0.72323        2.30109
N          4.99290       -1.31334       -0.24539
H          5.70967       -1.47401        0.45471
H          5.01689       -0.33104       -0.51319
H          5.21610       -1.87233       -1.06261
N         -0.95086        2.61918        0.02938
C         -0.32928        3.01262       -1.22592
C         -1.60833        3.72393        0.70624
H         -1.62574        1.87813       -0.14314
H          0.48902        3.71374       -1.02622
H          0.09506        2.13169       -1.71345
H         -1.03029        3.50121       -1.92521
H         -0.86076        4.46368        1.01527
H         -2.35320        4.24338        0.07802
H         -2.11219        3.35704        1.60473
