42
2msa2eda_46.log	Energy: -1072770.1134780
S          3.01992       -0.56329        0.17316
O          2.49960       -1.70067        0.95230
O          3.04737        0.72448        0.92265
O          2.31139       -0.41613       -1.13917
C          4.72424       -0.91705       -0.21598
H          5.26753       -1.01389        0.72418
H          4.75803       -1.85107       -0.77714
H          5.12173       -0.09375       -0.80933
S         -2.57813        0.40421        0.08145
O         -2.58305       -0.44199       -1.13819
O         -2.84739        1.82874       -0.13964
O         -1.29686        0.18651        0.85874
C         -3.86680       -0.23385        1.13778
H         -4.81936       -0.07775        0.63067
H         -3.69241       -1.29912        1.29786
H         -3.83846        0.31215        2.08073
H          0.10449       -3.75123       -1.22941
H          0.82445       -3.25708        0.32517
H         -1.22167       -4.53827        0.77490
H         -1.44472       -2.87117        1.26765
H         -2.75977       -2.51792       -0.74117
H         -2.58012       -4.11332       -1.14811
H          0.86114       -1.36494       -1.06833
H         -0.79671       -1.51639       -1.43246
C         -0.04190       -3.14536       -0.33057
C         -1.33934       -3.52021        0.38989
N         -0.06626       -1.71930       -0.74209
N         -2.56707       -3.45045       -0.38195
H         -0.33458       -1.11071        0.05634
H          1.78617        2.93791       -0.86181
H          0.60229        1.72584       -1.35735
H         -0.17549        4.08385       -1.88766
H         -1.26617        3.23740       -0.77534
H          0.59456        5.37701       -0.06467
H         -0.96127        5.14714        0.39515
H          1.59315        1.56906        0.94335
H          0.59310        2.91624        1.30453
C          0.77017        2.57272       -0.69071
C         -0.26882        3.67477       -0.87380
N          0.71123        2.08704        0.71079
N         -0.09176        4.67336        0.18423
H         -0.10123        1.44713        0.84865
