28
2msa1dma_100.log	Energy: -918444.2051569
S         -1.78074       -1.30314       -0.06058
O         -2.24049       -2.67164       -0.17941
O         -0.82935       -0.78701       -1.04589
O         -1.13458       -1.10174        1.39141
H         -0.19094       -0.83209        1.30742
C         -3.17325       -0.21229        0.03841
H         -3.72117       -0.32702       -0.89819
H         -3.78835       -0.53220        0.88000
H         -2.80697        0.81575        0.16151
S          2.46508       -0.21626        0.12439
O          1.49801       -0.38652        1.20073
O          3.86754       -0.05766        0.45747
O          2.01749        1.09084       -0.72112
H          2.75489        1.71849       -0.71104
C          2.22967       -1.49320       -1.08005
H          2.44191       -2.43753       -0.57621
H          1.18842       -1.45088       -1.40769
H          2.93047       -1.32190       -1.89657
N         -1.70817        2.73622        0.10135
C         -1.16414        2.69407       -1.24998
C         -0.67855        2.60512        1.12268
H         -2.21871        3.60135        0.24070
H         -0.72208        1.70885       -1.42472
H         -1.96839        2.84050       -1.97656
H         -0.38640        3.45646       -1.43067
H         -0.18979        1.63299        1.01866
H          0.10580        3.37893        1.05519
H         -1.13239        2.65294        2.11595
