43
2msa1eda1tma_266.log	Energy: -1062666.4884248
S         -2.85850       -0.54068       -0.48719
O         -2.61817        0.69134       -1.22515
O         -2.58431       -0.55568        0.94554
O         -2.12598       -1.74981       -1.19165
H         -1.29517       -2.05263       -0.68890
C         -4.54889       -1.02238       -0.76254
H         -5.17699       -0.22883       -0.35656
H         -4.70597       -1.12556       -1.83599
H         -4.72877       -1.96487       -0.24657
S          0.79859       -1.51689        0.69508
O         -0.01676       -2.57408        0.04120
O          0.59792       -0.18110        0.08928
O          2.25798       -1.86858        0.72439
H          2.99627       -0.79786       -0.15149
C          0.26024       -1.42868        2.38654
H          0.45722       -2.39239        2.85639
H          0.80423       -0.62289        2.87998
H         -0.80763       -1.20479        2.36675
H         -0.19421        4.02837        1.80649
H          1.18203        2.97354        1.49511
H          0.50953        4.21843       -0.51717
H          0.36570        2.46365       -0.75571
H         -1.55637        3.93931       -1.48753
H         -1.95954        2.65923       -0.57671
H         -1.61870        2.19761        1.86222
H         -0.50258        1.16822        1.27005
C          0.11166        3.11536        1.28383
C         -0.06540        3.33046       -0.22251
N         -0.62490        1.99442        1.85108
N         -1.46909        3.55059       -0.55527
N          3.51110       -0.05644       -0.72970
C          2.83345        0.01605       -2.04917
H          2.89954       -0.96127       -2.52870
H          1.78619        0.26474       -1.87559
H          3.32554        0.77332       -2.66421
C          3.38537        1.22142        0.01444
H          2.32268        1.43008        0.13905
H          3.85106        1.10324        0.99364
H          3.88049        2.01854       -0.54532
C          4.91599       -0.50404       -0.84701
H          5.34189       -0.60055        0.15217
H          4.93596       -1.47531       -1.34213
H          5.48642        0.22401       -1.42853
