32
2msa1a1dma_69.log	Energy: -953965.3397682
S          0.94026        1.77400        0.00991
O          2.25629        2.30480       -0.29105
O          0.74059        1.13618        1.31654
O          0.61045        0.72961       -1.13380
H         -0.22230        0.14657       -0.94591
C         -0.30020        3.02534       -0.18727
H         -0.12213        3.77287        0.58674
H         -0.18280        3.45865       -1.18044
H         -1.27610        2.54725       -0.06388
S         -2.56009       -0.49527        0.02579
O         -2.75240        0.95857       -0.01844
O         -2.61979       -1.14020        1.34490
O         -1.25476       -0.89368       -0.66978
H         -0.32644       -1.62649        0.67543
C         -3.83049       -1.22529       -0.99182
H         -4.79152       -0.99951       -0.52874
H         -3.76883       -0.78253       -1.98582
H         -3.66747       -2.30212       -1.03327
N          0.44555       -1.63517        1.37197
H          0.28342       -2.34262        2.08107
H          0.44249       -0.68904        1.77534
H          1.37003       -1.73435        0.83177
N          2.67897       -1.50599       -0.24523
C          3.05712       -2.69654       -1.00435
C          3.81275       -0.87927        0.43882
H          2.26682       -0.82193       -0.87935
H          3.42576       -3.46376       -0.31595
H          2.18192       -3.09322       -1.52519
H          3.84491       -2.49447       -1.74386
H          4.19840       -1.56452        1.20074
H          4.63118       -0.63077       -0.25045
H          3.48010        0.04065        0.92415
