25
2msa1ma_53.log	Energy: -893792.7195500
S         -2.44689       -0.34031        0.12842
O         -2.26753        1.09269       -0.14559
O         -2.04460       -0.81448        1.44033
O         -1.73073       -1.17126       -1.01582
H         -0.78226       -0.86184       -1.07502
C         -4.12960       -0.77696       -0.20646
H         -4.36815       -0.47269       -1.22480
H         -4.23425       -1.85365       -0.07533
H         -4.74113       -0.23736        0.51724
S          1.24034        0.98756       -0.15765
O          2.52322        1.52721       -0.54501
O          0.69222       -0.12715       -0.95005
O          0.20131        2.19016       -0.19831
H         -0.73093        1.85303       -0.19093
C          1.26833        0.48651        1.54264
H          2.04751       -0.28348        1.60090
H          1.53241        1.35897        2.14082
H          0.28319        0.09804        1.80976
N          3.93257       -1.13557        0.55298
H          4.11911       -0.24578        0.09896
C          3.59920       -2.15351       -0.44454
H          4.39008       -2.34161       -1.18482
H          3.37479       -3.09648        0.06214
H          2.69867       -1.84336       -0.98080
H          4.76915       -1.39440        1.06442
