25
2msa1ma_77.log	Energy: -893786.5520230
S          1.76245       -0.95248       -0.02560
O          1.24963       -2.23766        0.40524
O          1.10787       -0.30393       -1.16986
O          3.31660       -1.10085       -0.44704
H          3.37470       -1.10402       -1.41404
C          1.92546        0.14389        1.34920
H          0.94976        0.14882        1.83697
H          2.70211       -0.25717        2.00058
H          2.14129        1.14399        0.96020
S         -2.18428       -0.22740        0.05076
O         -3.53367        0.28093       -0.02905
O         -1.20677        0.41435        0.92916
O         -1.59483       -0.21496       -1.43465
H         -0.60850       -0.23931       -1.39932
C         -2.22072       -1.96288        0.44132
H         -2.64140       -2.05613        1.44338
H         -2.85857       -2.45939       -0.28971
H         -1.20018       -2.34950        0.41200
N          0.79861        2.71588       -0.10452
H          0.87140        2.48060       -1.08901
C          0.62044        4.15542        0.07262
H         -0.26556        4.57169       -0.42797
H          0.53788        4.37735        1.14025
H          1.50303        4.68069       -0.30361
H         -0.00861        2.20772        0.25015
