42
2msa2eda_417.log	Energy: -1072750.7683337
S          3.27797        0.07462        0.50978
O          2.88702        1.49137        0.52499
O          3.50836       -0.52641       -0.79644
O          2.25792       -0.77766        1.34257
H          1.34104       -0.85750        0.86566
C          4.71727       -0.10845        1.53010
H          5.52246        0.43920        1.03960
H          4.50116        0.31285        2.51123
H          4.95486       -1.16954        1.59843
S         -0.36241       -1.29365       -1.18068
O         -1.66766       -1.95862       -1.21572
O          0.01623       -0.86273        0.21976
O         -0.23554       -0.13320       -2.10615
H          0.18854        1.21622       -1.19355
C          0.86878       -2.48035       -1.67663
H          0.81441       -3.32653       -0.99087
H          0.63049       -2.79351       -2.69338
H          1.84816       -2.00009       -1.63520
H         -0.10864        4.02582       -0.25464
H         -0.07971        3.45883       -1.94389
H         -2.45127        3.85375       -1.05605
H         -2.16518        2.19940       -1.61010
H         -2.60046        3.02653        1.10990
H         -2.81774        1.53397        0.37640
H          1.28315        2.07369       -0.23100
H         -0.23524        1.65474        0.34423
C         -0.39628        3.21450       -0.92819
C         -1.90250        2.93023       -0.83722
N          0.28987        1.98320       -0.48415
N         -2.20134        2.35525        0.46670
H         -2.84740       -2.21605        1.30992
H         -3.84374       -1.89705        2.72642
H         -5.13245       -1.52693        0.72686
H         -4.93858       -0.00311        1.60331
H         -3.19549       -0.73168       -0.64961
H         -4.54261        0.18409       -0.80844
H         -1.59536       -0.35555        1.66972
H         -2.65006        0.32812        2.73111
C         -3.32993       -1.41711        1.88343
C         -4.39962       -0.75436        1.00862
N         -2.27692       -0.55365        2.39581
N         -3.81250       -0.08392       -0.15613
