35
2msa1ma1dma_284.log	Energy: -978616.3860682
S         -0.56616        1.82649       -0.07204
O         -1.94089        2.30693       -0.21229
O          0.06008        1.22614       -1.24789
O         -0.58853        0.79057        1.10796
H          0.20729        0.08003        1.08172
C          0.46191        3.14005        0.52710
H          0.49649        3.89932       -0.25540
H          0.00305        3.53906        1.43186
H          1.45816        2.71978        0.72498
S          0.93351       -2.08964        0.16014
O          1.50625       -3.32698        0.66796
O          1.18436       -0.90419        1.07022
O         -0.52127       -2.15952       -0.17532
H         -1.83082       -1.17324        0.06406
C          1.75544       -1.67168       -1.36599
H          2.82103       -1.56855       -1.15725
H          1.58426       -2.48376       -2.07342
H          1.33375       -0.73214       -1.72653
N          3.19005        1.35409        0.67148
H          4.01640        1.38354        1.25802
C          3.54727        1.44374       -0.74226
H          4.21622        0.64553       -1.09882
H          2.63123        1.41428       -1.33954
H          4.03811        2.40262       -0.93606
H          2.70768        0.47877        0.86840
N         -2.87667       -1.09191       -0.03873
C         -3.18490       -0.54496       -1.38535
C         -3.49896       -0.34556        1.08254
H         -3.16531       -2.07014       -0.00163
H         -2.88568        0.50324       -1.40361
H         -2.61273       -1.11080       -2.11995
H         -4.25569       -0.63823       -1.57361
H         -3.20153        0.69911        1.00187
H         -4.58381       -0.44409        1.01394
H         -3.13411       -0.76227        2.02072
