26
2msa2a_38.log	Energy: -904639.8004149
S          2.49211       -0.12351        0.20894
O          1.61166       -1.32472        0.30991
O          2.10418        0.95405        1.15753
O          2.60696        0.38557       -1.18341
H          1.46436        1.85947       -1.32950
C          4.10040       -0.70029        0.70297
H          4.01731       -1.09969        1.71362
H          4.40971       -1.47641        0.00311
H          4.78739        0.14539        0.67375
S         -1.73614       -0.42069       -0.26434
O         -1.46283        0.82568       -1.01097
O         -1.83949       -0.28507        1.18173
O         -0.69653       -1.51622       -0.66680
H          0.24364       -1.39466       -0.24474
C         -3.21591       -1.12673       -0.93089
H         -4.02724       -0.45097       -0.64230
H         -3.10241       -1.20700       -2.01137
H         -3.35073       -2.10653       -0.47273
N          0.77396        2.36418       -0.74164
H          0.71319        3.35324       -0.96041
H          1.13339        2.17878        0.21769
H         -0.14644        1.87874       -0.84315
N         -4.76519        0.86587        1.20499
H         -5.47908        0.52774        1.84110
H         -4.86174        1.87356        1.14439
H         -3.85688        0.66305        1.61706
