32
2msa1a1dma_93.log	Energy: -953957.8350938
S         -0.98583        1.44973        0.17902
O         -0.50248        2.79936        0.60784
O         -0.98461        0.43988        1.24506
O         -0.19201        1.01588       -1.03029
H          0.66262       -0.23664       -1.04636
C         -2.65720        1.65007       -0.38089
H         -3.24270        2.01871        0.46238
H         -2.66113        2.37167       -1.19779
H         -3.01006        0.66277       -0.70391
S          2.37028       -1.05995        0.03872
O          3.39856       -2.00694       -0.32891
O          1.30015       -1.03541       -1.11348
O          2.78516        0.32517        0.33710
H          2.31031        1.85896       -0.14090
C          1.46644       -1.65175        1.44758
H          1.11234       -2.65636        1.21482
H          2.16172       -1.67220        2.28761
H          0.63388       -0.96714        1.63139
N          1.93739        2.79306       -0.43044
H          2.60668        3.53120       -0.23217
H          1.00566        2.93442        0.07081
H          1.73016        2.74731       -1.42637
N         -3.30584       -1.59773       -0.63982
C         -3.77305       -1.68322        0.73711
C         -1.99449       -2.20581       -0.82150
H         -3.97653       -2.03856       -1.25973
H         -3.10016       -1.09926        1.37362
H         -4.77544       -1.25194        0.81535
H         -3.80571       -2.71467        1.12886
H         -1.27487       -1.67878       -0.18957
H         -1.96562       -3.27626       -0.55274
H         -1.67152       -2.09628       -1.85970
