28
2msa1dma_01.log	Energy: -918477.1467371
S         -1.77789       -1.00958       -0.11453
O         -1.01219       -1.80020       -1.08366
O         -2.46068        0.18811       -0.68485
O         -0.95539       -0.59569        1.07800
C         -3.06980       -2.05181        0.53147
H         -3.70659       -2.34898       -0.30206
H         -2.60108       -2.92387        0.98754
H         -3.63706       -1.48428        1.26885
S          2.36409       -0.27292        0.06534
O          3.74593       -0.12947        0.46547
O          1.66049        0.92937       -0.42050
O          1.56959       -0.87358        1.28325
H          0.55765       -0.80654        1.16718
C          2.21472       -1.51629       -1.19328
H          2.72788       -1.13954       -2.07878
H          2.69737       -2.42024       -0.82162
H          1.15112       -1.68220       -1.38483
N         -0.74430        2.20247       -0.10905
C         -0.71339        3.30754       -1.08702
C         -0.96895        2.61717        1.29184
H         -1.47953        1.49862       -0.37729
H          0.09166        3.99732       -0.82978
H         -0.53673        2.88885       -2.07754
H         -1.67167        3.82887       -1.07277
H         -0.15763        3.27390        1.60946
H         -1.92436        3.13952        1.36227
H         -0.99062        1.71451        1.90248
H          0.15299        1.67858       -0.16267
