32
2msa2ma_160.log	Energy: -953957.2808273
S         -1.51902        0.68564       -0.66507
O         -0.93361       -0.67987       -0.90664
O         -0.82457        1.74465       -1.41118
O         -1.59660        0.98083        0.80107
H         -0.24232        1.70814        1.28727
C         -3.19660        0.55904       -1.23270
H         -3.16579        0.38431       -2.30861
H         -3.66046       -0.28564       -0.71372
H         -3.69421        1.50267       -1.00830
S          2.39395       -0.83478       -0.00650
O          1.98308       -1.55924        1.18530
O          2.55419        0.62540        0.15316
O          1.48254       -1.14485       -1.22988
H          0.46826       -0.90744       -1.08197
C          3.93292       -1.47405       -0.61699
H          3.80875       -2.54258       -0.79026
H          4.18399       -0.95061       -1.53885
H          4.68194       -1.29065        0.15368
N         -3.22920       -2.38387        0.31299
H         -3.56070       -3.32929        0.15688
C         -3.00170       -2.14001        1.73716
H         -2.30150       -2.84261        2.21321
H         -2.60031       -1.13057        1.86008
H         -3.95512       -2.19129        2.27236
H         -2.35697       -2.27223       -0.19795
N          0.69073        2.19311        1.44493
H          0.87234        2.25199        2.44416
C          0.68623        3.52295        0.78917
H          1.66883        3.98396        0.88914
H          0.43812        3.36211       -0.26003
H         -0.07562        4.14888        1.25365
H          1.41573        1.57951        1.01444
