35
2msa1ma1dma_55.log	Energy: -978629.7889237
S         -1.34180       -1.60813        0.13472
O         -2.21699       -0.69942        0.89533
O         -0.13762       -2.06143        0.88885
O         -0.97369       -1.05009       -1.20310
C         -2.26231       -3.10072       -0.18588
H         -3.16532       -2.83113       -0.73389
H         -1.63618       -3.76998       -0.77577
H         -2.51331       -3.55319        0.77352
S          2.52066       -0.03206       -0.07371
O          3.91064        0.33950        0.09030
O          1.53546        1.03770       -0.27545
O          2.11078       -0.88313        1.18769
H          1.18163       -1.28578        1.09170
C          2.34669       -1.17617       -1.42546
H          2.70671       -0.66673       -2.32036
H          2.95916       -2.05142       -1.20930
H          1.28787       -1.42915       -1.52021
N         -0.30861        2.55278        1.44896
H          0.59477        2.10671        1.29235
C         -1.00395        1.93094        2.58582
H         -0.43068        1.97612        3.51927
H         -1.96202        2.43449        2.74134
H         -1.21486        0.88674        2.34519
H         -0.12561        3.53420        1.63202
N         -1.31929        1.69791       -0.99717
C         -2.78883        1.83053       -0.98846
C         -0.64212        2.43691       -2.07886
H         -0.94527        2.04315       -0.05722
H         -3.19242        1.49327       -1.94516
H         -3.17376        1.20189       -0.18498
H         -3.05379        2.87683       -0.82222
H         -0.99307        2.07049       -3.04560
H         -0.86732        3.50136       -1.98495
H          0.43034        2.27135       -1.97862
H         -1.07884        0.68511       -1.06788
