30
2msa1eda_169.log	Energy: -953178.0772631
S         -2.41512       -0.48468        0.05235
O         -3.39981       -1.43579        0.52754
O         -1.44898       -0.91941       -0.95783
O         -1.58035        0.08998        1.29926
H         -0.67634       -0.29845        1.29434
C         -3.21290        1.00253       -0.48510
H         -3.87961        0.71812       -1.30035
H         -3.78463        1.39765        0.35489
H         -2.43218        1.69377       -0.82452
S          1.70128       -1.33053       -0.03401
O          1.95623       -0.27514       -0.98783
O          0.93091       -1.04050        1.17905
O          3.12511       -1.89503        0.48951
H          3.15223       -1.80884        1.45387
C          1.05009       -2.75561       -0.85739
H          0.07296       -2.45516       -1.24185
H          1.73955       -3.02139       -1.65861
H          0.95613       -3.55745       -0.12560
H         -0.07467        4.01614        0.02805
H         -0.71567        2.64981        0.94846
H          1.58361        3.33729        1.63559
H          1.45419        1.63694        1.17218
H          3.36985        3.04151        0.22897
H          2.54541        2.13070       -0.84089
H          0.27749        2.66904       -1.80437
H         -0.00919        1.27619       -1.01364
C          0.03556        2.94103        0.20401
C          1.42640        2.66764        0.78234
N         -0.26796        2.25955       -1.05286
N          2.46547        2.92489       -0.21294
