29
2msa1a1ma_103.log	Energy: -929295.8106788
S         -2.81048        0.23307        0.04791
O         -2.16268        1.44924       -0.48680
O         -2.78016        0.07396        1.49025
O         -2.27260       -1.02872       -0.69822
H         -1.31907       -1.33317       -0.41416
C         -4.48363        0.22716       -0.54324
H         -4.46818        0.29267       -1.63057
H         -4.95746       -0.69476       -0.20773
H         -4.97452        1.09727       -0.10675
S          1.22005       -0.99998        0.08198
O          0.01599       -1.86307       -0.09667
O          1.18547       -0.22054        1.34763
O          1.45684       -0.11235       -1.09492
H          0.91497        1.61743       -0.62560
C          2.59608       -2.11722        0.18593
H          2.45779       -2.73501        1.07314
H          2.59907       -2.72849       -0.71682
H          3.50653       -1.51622        0.24982
N          0.42140        2.08754        0.15605
H          0.66194        1.47098        0.96039
H         -0.60239        2.00115       -0.02755
H          0.71593        3.04908        0.29211
N          4.39337        0.67223       -0.67705
H          5.11332        1.00008       -1.31030
C          4.06158        1.68548        0.31647
H          3.65947        2.62664       -0.09943
H          3.32538        1.27283        1.01364
H          4.95288        1.93809        0.89793
H          3.57073        0.43280       -1.22453
