25
2msa1ma_48.log	Energy: -893794.0509369
S          2.03077       -0.42089       -0.04992
O          1.20515       -0.06089        1.11225
O          2.31207        0.63245       -1.00957
O          1.40507       -1.69037       -0.75143
H          0.41781       -1.55530       -0.87448
C          3.54936       -1.12636        0.52821
H          4.09453       -0.32594        1.02918
H          3.31372       -1.93372        1.22037
H          4.10423       -1.49012       -0.33634
S         -2.16266       -0.68083        0.00130
O         -3.25275       -1.58218        0.28889
O         -1.12314       -1.10817       -0.95282
O         -1.45417       -0.32764        1.38094
H         -0.48385       -0.16457        1.26407
C         -2.77580        0.88361       -0.55252
H         -3.26269        0.70942       -1.51323
H         -3.49712        1.23285        0.18687
H         -1.91747        1.56560       -0.65074
N         -0.06908        2.70642       -0.67094
H          0.72418        2.15542       -0.98934
C          0.19397        3.24369        0.66429
H          1.03486        3.95017        0.71078
H         -0.69971        3.75224        1.03899
H          0.41396        2.41543        1.34204
H         -0.19166        3.45973       -1.33962
