35
2msa1ma1dma_96.log	Energy: -978626.2742871
S         -1.64101       -1.56732        0.02456
O         -1.23803       -1.81170       -1.36346
O         -2.65204       -0.48556        0.18367
O         -0.46409       -1.31998        0.93617
C         -2.40396       -3.05051        0.65361
H         -2.67869       -2.88142        1.69462
H         -3.28589       -3.25859        0.04753
H         -1.67901       -3.86049        0.57093
S          2.58532       -0.06358       -0.06696
O          2.76723        0.64690        1.19668
O          1.87063        0.64877       -1.12200
O          1.95138       -1.48148        0.17608
H          0.95897       -1.43292        0.43936
C          4.17284       -0.58044       -0.67471
H          4.65730       -1.18251        0.09329
H          4.02168       -1.15118       -1.59029
H          4.74372        0.32731       -0.87231
N         -0.13139        1.64783        1.44291
H         -0.26016        0.63973        1.55464
C         -0.83633        2.36455        2.50742
H         -0.48545        2.10657        3.51414
H         -0.71524        3.44318        2.36998
H         -1.90396        2.13122        2.45277
H          0.87373        1.79870        1.49632
N         -1.50966        1.75429       -0.92217
C         -0.85616        1.46390       -2.21605
C         -2.29188        3.00160       -0.90188
H         -2.11006        0.94616       -0.64807
H         -0.10755        2.23020       -2.41996
H         -0.37049        0.49165       -2.14875
H         -1.61416        1.44966       -3.00197
H         -1.63062        3.84508       -1.10978
H         -3.07878        2.95920       -1.65725
H         -2.73941        3.12397        0.08531
H         -0.80526        1.78378       -0.10463
