34
2msa1a1eda_38.log	Energy: -988712.9299594
S          2.35043       -0.79640       -0.14428
O          2.33483        0.67036       -0.48258
O          1.30156       -1.52082       -0.87755
O          2.33934       -1.01130        1.32681
H          1.04382       -0.34235        2.21562
C          3.92999       -1.40243       -0.70530
H          3.99580       -1.23804       -1.78081
H          4.71415       -0.85725       -0.17994
H          3.97955       -2.46699       -0.47548
S         -2.60502       -0.76015       -0.05594
O         -4.05013       -0.92063        0.04830
O         -1.97515       -0.16247        1.16765
O         -2.17612        0.00523       -1.27624
H         -0.83237        0.71240       -1.47997
C         -1.87342       -2.37872       -0.23464
H         -2.30546       -2.83772       -1.12458
H         -0.79244       -2.26654       -0.34297
H         -2.12960       -2.96062        0.65181
N          0.23473        0.21536        2.57546
H          0.10999        0.08502        3.57436
H         -0.63576       -0.06677        2.05054
H          0.42353        1.21575        2.33862
H          0.43006        3.43750       -1.51669
H         -1.30085        3.03820       -1.65933
H         -1.00856        3.64282        0.62129
H         -1.18026        1.89851        0.58319
H          1.43361        2.01633        0.61181
H          1.16592        3.50517        1.24489
H          0.06610        1.38833       -2.73406
H          0.87159        1.02794       -1.32289
C         -0.35375        2.74226       -1.20196
C         -0.50487        2.72080        0.31921
N         -0.02601        1.38603       -1.72039
N          0.74018        2.59844        1.08964
