29
2msa1a1ma_118.log	Energy: -929294.9773462
S          2.45294       -0.75815       -0.09757
O          3.00377        0.49772        0.44901
O          2.05105       -0.72478       -1.49564
O          1.29642       -1.27052        0.81836
H          0.52788       -0.55483        0.87128
C          3.65137       -2.03893        0.16170
H          3.88698       -2.08405        1.22431
H          3.22212       -2.97725       -0.18871
H          4.53130       -1.77260       -0.42440
S         -1.35750        1.00239       -0.12128
O         -2.70695        1.19803        0.39817
O         -0.37971        0.54719        0.94445
O         -0.77230        2.20852       -0.79565
H          0.54008        2.60225       -0.11503
C         -1.40320       -0.29143       -1.33971
H         -1.82617       -1.17481       -0.85095
H         -2.05220        0.05157       -2.14656
H         -0.39032       -0.46628       -1.70691
N          1.42294        2.78197        0.48668
H          2.05441        1.95639        0.41567
H          1.11301        2.85581        1.45349
H          1.90548        3.63047        0.20476
N         -3.49792       -1.77744        0.73416
H         -3.62948       -2.44978        1.48107
C         -4.67496       -1.71235       -0.12695
H         -5.61304       -1.46533        0.39202
H         -4.51077       -0.94614       -0.89019
H         -4.81022       -2.67052       -0.63838
H         -3.32863       -0.86746        1.15446
