42
2msa2eda_442.log	Energy: -1072748.7770955
S         -1.08065       -1.46455       -0.65150
O         -0.68981       -1.00302        0.69939
O         -1.01955       -0.38251       -1.66838
O         -2.44966       -2.10328       -0.62580
H         -3.35413       -1.52100        0.36870
C          0.03594       -2.74465       -1.15997
H          1.03954       -2.30565       -1.19604
H         -0.01894       -3.54700       -0.42357
H         -0.28320       -3.09583       -2.14148
S          3.29295       -0.67032        0.34008
O          4.74677       -0.79824        0.43053
O          2.68636       -1.05316       -0.96107
O          2.78436        0.69437        0.74455
H          1.73339        1.06218       -0.35148
C          2.58891       -1.78414        1.55379
H          2.89462       -2.79951        1.29580
H          2.98024       -1.51146        2.53467
H          1.50236       -1.67916        1.52258
H         -4.01371        0.63919        2.38120
H         -2.39983        0.08363        1.81669
H         -3.15002        2.20879        0.66403
H         -2.84596        0.86897       -0.44525
H         -5.45413        1.96039        0.26884
H         -4.91224        1.39651       -1.17134
H         -4.20829       -1.65907        1.86358
H         -4.90310       -0.79686        0.60121
C         -3.43715        0.26634        1.52965
C         -3.51658        1.22603        0.34292
N         -4.02759       -1.02575        1.08911
N         -4.88767        1.24403       -0.17074
H         -0.75391        2.67152       -0.59497
H         -0.20007        1.68895        0.78457
H          0.40093        4.10447        1.13150
H          1.83584        3.07657        0.98489
H          0.85890        4.96795       -1.00960
H          2.39682        4.63075       -0.55137
H          0.37224        0.72017       -1.35560
H          1.35702        2.06863       -1.66273
C          0.12546        2.32132       -0.04461
C          0.98431        3.48743        0.43490
N          0.93992        1.47931       -0.93997
N          1.48614        4.22491       -0.72496
