32
2msa2ma_62.log	Energy: -953966.0590384
S          2.58857       -0.26268        0.18151
O          2.34863        0.12967       -1.20457
O          2.17591       -1.61780        0.55477
O          1.96720        0.79179        1.16848
H          0.93917        0.81115        1.04873
C          4.30548       -0.04968        0.57528
H          4.58086        0.98147        0.35634
H          4.44902       -0.28142        1.63014
H          4.86350       -0.74247       -0.05506
S         -1.43376        1.49388       -0.07232
O         -2.21128        2.37678        0.78677
O         -2.19605        0.63859       -1.00780
O         -0.48841        0.59244        0.73068
H         -0.48089       -0.95213       -0.00886
C         -0.33875        2.49643       -1.06459
H         -0.95747        3.10747       -1.72244
H          0.24576        3.13035       -0.39667
H          0.31689        1.83817       -1.63672
N         -0.55510       -1.90591       -0.43009
H          0.15070       -2.47494        0.03691
C         -0.32210       -1.83756       -1.89034
H         -0.42255       -2.83354       -2.32298
H         -1.06714       -1.16127       -2.30887
H          0.67703       -1.44025       -2.06996
H         -1.55059       -2.20072       -0.21853
N         -3.27127       -1.91488        0.10219
H         -3.32266       -1.04600       -0.43337
C         -3.40781       -1.59639        1.53089
H         -4.35981       -1.11382        1.77939
H         -3.31286       -2.51169        2.12154
H         -2.60294       -0.91469        1.81920
H         -4.02718       -2.51786       -0.20458
