43
2msa1eda1tma_53.log	Energy: -1062687.4544449
S         -1.52445       -1.71690        0.57269
O         -0.16641       -1.97946        1.08559
O         -1.54909       -1.53726       -0.91538
O         -2.21106       -0.58762        1.25520
H         -1.78986        1.15728        0.16405
C         -2.49899       -3.17381        0.91005
H         -2.02453       -4.02449        0.42025
H         -2.52434       -3.31698        1.99056
H         -3.50366       -3.01641        0.51738
S          1.82768        1.86735        0.66080
O          1.11282        1.65480       -0.64524
O          2.38858        3.20331        0.82582
O          2.81142        0.75447        0.86683
H          2.60757       -0.45300       -0.10468
C          0.59510        1.62698        1.93450
H         -0.16301        2.40685        1.83848
H          0.15683        0.63138        1.83317
H          1.09629        1.72241        2.89811
H         -3.96575        0.48841       -1.81504
H         -4.61044        2.13318       -1.85709
H         -2.22696        2.03548       -2.62505
H         -2.44054        3.07069       -1.18958
H         -1.51521        0.23632       -1.13404
H         -0.52215        1.56920       -0.84592
H         -5.19413        1.54629        0.26091
H         -3.86090        0.62177        0.54150
C         -3.90020        1.48023       -1.34179
C         -2.50164        2.04824       -1.56765
N         -4.20170        1.46573        0.08381
N         -1.51760        1.23189       -0.82527
N          2.76521       -1.25921       -0.78908
C          2.79022       -2.50901        0.00831
H          3.56095       -2.41590        0.77457
H          1.81147       -2.63244        0.47503
H          3.01647       -3.35040       -0.65214
C          1.67450       -1.26574       -1.79373
H          0.72884       -1.48589       -1.29751
H          1.62444       -0.27598       -2.24750
H          1.89236       -2.02904       -2.54596
C          4.07637       -0.96015       -1.40768
H          4.00769        0.00223       -1.91536
H          4.82931       -0.89410       -0.62223
H          4.33373       -1.74924       -2.11851
