35
2msa1ma1dma_97.log	Energy: -978626.9449692
S         -1.01540       -1.61524       -0.22204
O         -2.44976       -1.93284       -0.18086
O         -0.54046       -1.04825        1.09853
O         -0.61664       -0.71402       -1.33159
H         -0.50927        0.96400       -0.74686
C         -0.11338       -3.13107       -0.45527
H         -0.33249       -3.79088        0.38443
H         -0.44932       -3.57443       -1.39298
H          0.94792       -2.88024       -0.50580
S          2.55655        0.12365        0.05622
O          2.02867        1.27142       -0.68338
O          2.70078       -1.14273       -0.64575
O          1.73926       -0.07104        1.38716
H          0.80808       -0.52101        1.23081
C          4.12562        0.58707        0.75350
H          4.80233        0.76309       -0.08328
H          3.99306        1.49598        1.33953
H          4.48359       -0.23401        1.37368
N         -3.53470        0.85736       -0.00740
H         -4.37763        1.24787       -0.41659
C         -3.67004        0.75399        1.45331
H         -4.56158        0.19821        1.76579
H         -2.79461        0.22981        1.84397
H         -3.70929        1.75424        1.89543
H         -3.42179       -0.08898       -0.37960
N         -0.97129        1.86402       -0.50403
C         -0.77251        2.79788       -1.62670
C         -0.49774        2.36972        0.79936
H         -1.99600        1.58650       -0.40565
H          0.29641        2.97720       -1.74850
H         -1.17034        2.33999       -2.53271
H         -1.29577        3.73401       -1.42121
H          0.55973        2.61939        0.72049
H         -1.08593        3.24819        1.07399
H         -0.63006        1.58106        1.54010
