32
2msa1a1dma_65.log	Energy: -953965.2029649
S         -1.94936       -1.25124       -0.03521
O         -2.36813       -0.10202       -0.82903
O         -1.69041       -0.98906        1.39058
O         -0.73492       -1.97609       -0.67982
H          0.20465       -1.66286       -0.29274
C         -3.18999       -2.51513       -0.15941
H         -4.10891       -2.10413        0.25941
H         -3.32064       -2.75556       -1.21427
H         -2.85678       -3.38497        0.40547
S          2.43431       -0.33525       -0.13370
O          2.26986        0.04446       -1.53514
O          1.39487       -1.32058        0.34917
O          2.50636        0.80489        0.82404
H          1.02208        1.01115        1.61801
C          3.98367       -1.20219        0.02591
H          3.96063       -2.06099       -0.64516
H          4.77810       -0.51271       -0.26084
H          4.10078       -1.51956        1.06181
N          0.03380        1.21786        1.90225
H         -0.32571        1.98565        1.23477
H         -0.00042        1.52926        2.86808
H         -0.54086        0.36441        1.79035
N         -0.72488        3.07195        0.00205
C         -2.17470        3.24070       -0.12894
C         -0.11931        2.48156       -1.20179
H         -0.29726        3.97821        0.17103
H         -2.63057        2.25519       -0.25380
H         -2.57661        3.70564        0.77581
H         -2.44809        3.85997       -0.99544
H         -0.56292        1.49778       -1.37171
H         -0.29278        3.09564       -2.09625
H          0.95448        2.35042       -1.05510
