43
2msa1eda1tma_147.log	Energy: -1062678.7365437
S          0.19829        1.80038        0.46694
O          1.22478        1.61820        1.50424
O         -1.19610        1.69708        0.91744
O          0.43635        0.84651       -0.70037
C          0.42363        3.42321       -0.23719
H          0.27635        4.15356        0.55895
H          1.43575        3.49029       -0.63742
H         -0.31558        3.55864       -1.02672
S          3.58453       -0.77244       -0.53499
O          4.75325       -1.21535       -1.26204
O          2.62644       -1.78582       -0.06789
O          2.83033        0.27275       -1.44833
H          1.89745        0.50323       -1.11689
C          4.07382        0.18632        0.87883
H          4.55842       -0.49773        1.57656
H          4.77584        0.94682        0.53667
H          3.17949        0.63914        1.31500
H         -0.06171       -2.63019        1.98750
H          0.21466       -0.86848        2.00712
H         -2.13417       -1.57583        2.80761
H         -2.10303       -0.40669        1.48713
H         -3.01583       -3.13730        1.33551
H         -3.36610       -1.80756        0.38441
H          0.83137       -2.06961       -0.09673
H         -0.87399       -2.28493       -0.29609
C         -0.38056       -1.67233        1.56907
C         -1.88396       -1.44605        1.74901
N         -0.11453       -1.71728        0.10819
N         -2.62535       -2.33588        0.85657
H         -0.12616       -0.75346       -0.29127
N         -4.14738       -0.26186       -0.68390
C         -5.31321       -0.79946       -1.36716
H         -5.04127       -1.71334       -1.90476
H         -6.08903       -1.04791       -0.63678
H         -5.73907       -0.08410       -2.09489
C         -4.49272        0.91926        0.09862
H         -5.22685        0.65146        0.86456
H         -3.59759        1.31404        0.58520
H         -4.92547        1.71852       -0.53103
C         -3.07599        0.03340       -1.62634
H         -2.21300        0.43863       -1.09177
H         -2.77732       -0.88438       -2.14404
H         -3.38390        0.77231       -2.38844
