35
2msa1ma1dma_269.log	Energy: -978616.8012473
S         -1.37740       -1.56712       -0.27143
O         -0.38121       -2.38070       -0.98148
O         -2.32139       -0.83481       -1.15368
O         -0.76215       -0.64025        0.74106
C         -2.37769       -2.69554        0.69162
H         -2.87107       -3.37948        0.00038
H         -1.72404       -3.24494        1.36954
H         -3.11443       -2.11856        1.25185
S          3.02844        0.08516        0.27112
O          2.08364        1.01904       -0.31411
O          3.77428        0.46097        1.46272
O          4.12727       -0.24034       -0.88491
H          5.00529       -0.15884       -0.48661
C          2.25515       -1.48836        0.48683
H          1.44188       -1.33811        1.19996
H          1.81505       -1.80750       -0.45974
H          3.00611       -2.18667        0.85571
N         -3.58327        1.50497        0.04021
H         -4.38233        2.03659       -0.28716
C         -3.73379        1.13590        1.45183
H         -4.63335        0.54142        1.65691
H         -2.85812        0.55158        1.75082
H         -3.77065        2.03828        2.06907
H         -3.50158        0.65543       -0.52455
N         -0.84482        1.88703       -0.34140
C         -0.22811        2.99392        0.41264
C         -0.55259        1.88953       -1.79120
H         -0.56688        0.96413        0.06383
H         -0.61514        3.94350        0.03693
H         -0.48497        2.88367        1.46707
H          0.85393        2.94738        0.29332
H         -0.94040        2.81129       -2.23041
H          0.52479        1.81912       -1.93690
H         -1.04879        1.02225       -2.22950
H         -1.89664        1.90288       -0.21428
