34
2msa1a1eda_136.log	Energy: -988704.7308642
S          2.43578       -0.49683       -0.41788
O          3.78059       -0.50639       -0.95499
O          1.47928       -1.02804       -1.54843
O          1.91337        0.76616        0.11596
C          2.28926       -1.72002        0.86734
H          2.52090       -2.69388        0.43599
H          3.01598       -1.45958        1.63795
H          1.27124       -1.66761        1.26035
S         -1.66305       -1.37684        0.30502
O         -2.98910       -0.75839        0.17168
O         -0.77159       -0.68438        1.28152
O         -0.96105       -1.55103       -1.00621
H          0.51020       -1.17424       -1.26340
C         -1.91402       -3.02193        0.94619
H         -2.40883       -2.93411        1.91352
H         -2.54121       -3.56664        0.24036
H         -0.94305       -3.50711        1.05021
N          1.73354        3.17595        1.78265
H          2.09301        4.06753        1.45817
H          2.25514        2.43530        1.31239
H          1.92587        3.11342        2.77702
H         -0.58614        3.50994       -0.81206
H          0.29672        2.00783       -1.19026
H         -1.96893        2.34110       -2.41998
H         -1.76605        0.79817       -1.59761
H         -3.73746        2.71550       -1.05097
H         -3.47395        1.26109       -0.30950
H          0.11739        2.55354        1.20126
H         -1.58182        2.31438        1.02072
C         -0.61693        2.41776       -0.75900
C         -1.87963        1.87385       -1.43423
N         -0.64651        2.05957        0.68050
N         -3.04556        2.13982       -0.59083
H         -0.53713        1.03528        0.83717
