37
2msa1ma1eda_243.log	Energy: -1013360.6757980
S          2.35994        0.88116        0.59940
O          1.76759       -0.45257        0.44835
O          3.70317        0.97567        1.13309
O          1.43284        1.77541        1.50347
C          2.28004        1.67605       -0.99177
H          1.25377        1.59275       -1.35912
H          2.58970        2.71376       -0.86848
H          2.97169        1.14491       -1.64746
S         -1.73464        1.47577       -0.43513
O         -2.82310        0.63224        0.09399
O         -0.84848        0.74266       -1.38823
O         -0.94424        2.16472        0.62496
H          0.48052        1.84249        1.15711
C         -2.50304        2.78466       -1.37067
H         -3.14959        3.34477       -0.69508
H         -1.71974        3.42734       -1.77284
H         -3.08335        2.33132       -2.17442
N          1.79761       -3.17455       -0.55532
H          2.29871       -2.58564        0.10738
C          2.19326       -2.81607       -1.92131
H          3.26140       -2.96111       -2.12356
H          1.62001       -3.41166       -2.63688
H          1.95520       -1.76205       -2.08697
H          2.02708       -4.14162       -0.35300
H         -2.56774       -1.60051       -0.80037
H         -1.84461       -3.21765       -0.99740
H         -3.59446       -2.99225        0.86716
H         -2.04374       -3.66161        1.39915
H         -2.75304       -0.81791        1.69852
H         -2.53943       -1.92762        2.91791
H         -0.48025       -0.90334       -0.70914
H         -0.57941       -1.40909        0.85501
C         -1.93823       -2.35781       -0.33110
C         -2.53287       -2.75525        1.02408
N         -0.60358       -1.74782       -0.12023
N         -2.28176       -1.67904        1.97205
H          0.20933       -2.40105       -0.26161
