38
2msa1ma1tma_53.log	Energy: -1003283.2452805
S          0.85992       -2.10882       -0.26099
O         -0.35594       -2.71529        0.29360
O          2.05174       -2.13373        0.60247
O          0.59673       -0.68552       -0.74092
C          1.26814       -3.00695       -1.74859
H          1.47504       -4.03932       -1.46521
H          0.41420       -2.96037       -2.42499
H          2.14784       -2.54851       -2.20031
S         -2.50709        0.44554        0.12965
O         -3.60891        1.33256       -0.18328
O         -1.47815        0.90302        1.06922
O         -1.80454        0.06120       -1.23423
H         -0.86469       -0.28575       -1.06140
C         -3.13332       -1.10952        0.71796
H         -3.60642       -0.92260        1.68277
H         -3.86456       -1.46856       -0.00637
H         -2.29121       -1.80072        0.80634
N          1.81475        3.06761       -1.89651
H          1.65748        4.06044       -2.03861
C          0.59888        2.30524       -2.20623
H          0.20022        2.47295       -3.21516
H          0.80535        1.23948       -2.08798
H         -0.18686        2.56270       -1.49013
H          2.56373        2.80596       -2.52946
N          1.51260        1.08022        1.26140
C          2.93007        0.94972        0.83084
H          3.14493       -0.11110        0.69745
H          3.04463        1.49375       -0.10786
H          3.57020        1.38578        1.60112
C          1.10327        2.50628        1.35023
H          1.35676        2.98798        0.40374
H          0.03079        2.54525        1.53396
H          1.65668        2.96981        2.17045
C          1.24881        0.34775        2.52943
H          0.18294        0.41962        2.74211
H          1.53726       -0.69434        2.38740
H          1.83786        0.80939        3.32501
H          0.94847        0.60296        0.52768
