29
2msa1a1ma_55.log	Energy: -929301.4471759
S         -2.12673       -0.08620       -0.36894
O         -1.37056        1.10473       -0.76602
O         -3.16284       -0.55821       -1.28300
O         -2.78490        0.21967        1.03461
H         -3.78319       -0.05245        1.02926
C         -0.98948       -1.39017       -0.00710
H         -0.28070       -1.04179        0.74850
H         -1.56508       -2.25093        0.33360
H         -0.43589       -1.62194       -0.91888
S          2.63857       -0.67647        0.02221
O          2.08424       -1.75777       -0.80251
O          1.75652       -0.24150        1.13635
O          3.07970        0.51877       -0.78492
H          1.95832        1.57440       -0.74033
C          4.14103       -1.29871        0.76032
H          3.88051       -2.16626        1.36744
H          4.82108       -1.58401       -0.04250
H          4.57773       -0.51319        1.37713
N         -5.30298       -0.48457        0.81819
H         -5.28259       -0.71876       -0.17278
H         -5.97853        0.25985        0.95725
H         -5.61884       -1.29889        1.33480
N          1.14793        2.27035       -0.58503
H          1.15852        2.97233       -1.32116
C          1.26190        2.87282        0.76291
H          0.40352        3.51695        0.95531
H          1.29520        2.04971        1.47674
H          2.18795        3.44510        0.82067
H          0.25990        1.74308       -0.66251
