40
2msa1dma1eda_180.log	Energy: -1038023.2799126
S          0.52445        2.10084        0.40970
O          1.86336        1.56287        0.72082
O         -0.48261        1.95231        1.46764
O          0.03422        1.53899       -0.91360
C          0.72562        3.84745        0.10944
H          1.09070        4.30147        1.03100
H          1.44675        3.97853       -0.69727
H         -0.24466        4.26173       -0.16486
S         -2.76965       -0.54082       -0.46920
O         -1.58527       -1.40379       -0.37783
O         -3.98191       -1.08263       -1.04554
O         -2.39764        0.75534       -1.29594
H         -1.46218        1.08808       -1.09525
C         -3.10317        0.09160        1.15747
H         -3.33225       -0.76365        1.79481
H         -2.21815        0.63179        1.50435
H         -3.96333        0.75723        1.08460
N          1.27746       -2.10454        1.28708
C          0.70110       -3.44593        1.26881
C          0.71254       -1.25214        2.33313
H          2.28989       -2.14711        1.37689
H         -0.36078       -3.36767        1.01774
H          1.19506       -4.04929        0.50145
H          0.79792       -3.96208        2.23502
H         -0.34940       -1.09831        2.12445
H          0.81638       -1.69730        3.33346
H          1.20031       -0.27627        2.31308
H          2.47693       -2.39857       -1.85074
H          2.00373       -1.17859       -3.05795
H          4.25284       -0.74513       -2.15721
H          3.14684        0.58635       -1.80059
H          4.66475       -0.45841        0.03954
H          3.15472        0.04508        0.39814
H          0.16976       -1.53267       -1.54926
H          1.11759       -1.41444       -0.17709
C          2.22392       -1.34524       -1.99973
C          3.38382       -0.45977       -1.55621
N          1.00922       -1.06244       -1.20642
N          3.68443       -0.64291       -0.13765
H          0.76761       -0.05241       -1.17527
