38
2msa2dma_87.log	Energy: -1003285.1311285
S          0.87279        1.88489       -0.28624
O          0.44871        1.42368       -1.61477
O          2.01423        1.12190        0.29353
O         -0.26250        1.93726        0.69873
C          1.43927        3.56551       -0.45508
H          2.27595        3.56686       -1.15391
H          0.61278        4.16093       -0.84328
H          1.75092        3.92576        0.52514
S         -2.59881       -0.52035       -0.17651
O         -3.93291       -1.04603        0.01101
O         -1.47936       -1.24217        0.45122
O         -2.59655        0.97218        0.32414
H         -1.65705        1.35496        0.42068
C         -2.23891       -0.38110       -1.91062
H         -2.17725       -1.39409       -2.31049
H         -3.05928        0.16690       -2.37419
H         -1.29072        0.15119       -2.02319
N          0.81524       -0.74521        1.91203
C          1.54213       -2.00814        2.16702
C          0.37757       -0.02410        3.12724
H          1.39743       -0.10092        1.32836
H          0.88501       -2.69314        2.70562
H          1.83600       -2.42427        1.19680
H          2.42479       -1.78992        2.77133
H         -0.30693       -0.65820        3.69248
H          1.25333        0.21448        3.73291
H         -0.11999        0.89272        2.81183
H         -0.02270       -0.93722        1.33082
N          2.22599       -2.48451       -1.00982
C          3.39070       -1.66107       -1.32028
C          1.03972       -2.06118       -1.74724
H          2.42952       -3.45312       -1.23461
H          3.20345       -0.63848       -0.97888
H          4.26675       -2.04772       -0.79103
H          3.62216       -1.62433       -2.39817
H          0.83503       -1.01077       -1.52266
H          1.15650       -2.14599       -2.84111
H          0.17618       -2.65420       -1.43314
