30
2msa1eda_68.log	Energy: -953204.3644066
S          1.15739       -1.68084        0.09008
O          0.09234       -2.14657        0.98699
O          2.37317       -1.16893        0.74186
O          0.61735       -0.67263       -0.91611
H         -0.86218       -0.58078       -1.03850
C          1.65232       -3.07851       -0.90466
H          2.06440       -3.83194       -0.23272
H          0.77160       -3.46368       -1.41885
H          2.40535       -2.74577       -1.61916
S         -2.54726        0.36252        0.00868
O         -1.87120       -0.40124       -1.18721
O         -3.81879        0.87812       -0.45144
O         -1.56853        1.33065        0.54971
H         -0.20030        1.76154       -0.29391
C         -2.79994       -0.87983        1.24749
H         -3.50543       -1.60666        0.84433
H         -1.83370       -1.34269        1.46316
H         -3.21734       -0.37945        2.12189
H          1.87218        1.53663        1.47598
H          2.99868        2.89448        1.47059
H          0.74915        3.62713        0.63713
H          1.97289        3.72942       -0.65707
H          0.29124        2.53933       -1.68250
H          1.20369        1.28462       -1.06517
H          4.18689        1.81562       -0.18954
H          3.27719        0.46560        0.17013
C          2.42692        2.21950        0.82326
C          1.43538        3.05309        0.01086
N          3.25001        1.44837       -0.09406
N          0.63294        2.11578       -0.82279
