37
2msa1ma1eda_555.log	Energy: -1013347.7953442
S         -2.97612       -0.54299        0.37652
O         -4.41868       -0.47999        0.50103
O         -2.19066        0.23520        1.35657
O         -2.51355       -0.07778       -1.06497
H         -2.18497        0.88519       -1.04539
C         -2.43311       -2.22656        0.37046
H         -2.99098       -2.74498       -0.40985
H         -1.35679       -2.26580        0.17259
H         -2.67753       -2.63552        1.35170
S          1.62249       -1.44452       -0.35450
O          0.65310       -2.53806       -0.49471
O          1.87226       -1.02222        1.05137
O          1.26080       -0.23300       -1.18480
H          0.63580        0.72445       -0.15431
C          3.17653       -2.01402       -1.01539
H          3.45626       -2.91568       -0.46934
H          3.03029       -2.23652       -2.07255
H          3.92215       -1.22938       -0.87037
N          4.46717        0.54622        0.94366
H          3.79043       -0.12558        1.29995
C          3.78216        1.75305        0.50892
H          3.22156        2.27972        1.30479
H          4.50304        2.46432        0.09406
H          3.08157        1.48964       -0.29087
H          5.14035        0.74662        1.67392
H         -0.40465        3.22986        1.15812
H          1.19452        3.15020        0.40246
H         -0.31728        4.04467       -1.22054
H          0.18081        2.42727       -1.74493
H         -2.38681        2.97609       -0.41108
H         -2.17741        2.74958       -2.01073
H          0.94163        1.06611        1.42594
H         -0.64205        0.88808        0.96822
C          0.18469        2.73529        0.37981
C         -0.40838        2.97330       -1.00185
N          0.27285        1.29450        0.68712
N         -1.79993        2.50672       -1.09818
