42
2msa2eda_376.log	Energy: -1072752.0795774
S         -0.01138        2.26083        0.32791
O          1.25058        1.66303        0.89041
O         -0.98613        2.59766        1.36292
O         -0.54665        1.38223       -0.75617
C          0.48793        3.77058       -0.48014
H          1.22561        3.52643       -1.24493
H         -0.39794        4.22356       -0.92583
H          0.91532        4.42923        0.27623
S          3.06285       -1.01515       -0.30208
O          2.01174       -1.71974       -1.05209
O          3.17010       -1.33122        1.11421
O          2.94854        0.52775       -0.53255
H          2.22103        0.99325        0.06383
C          4.60877       -1.32542       -1.11753
H          4.51863       -1.01769       -2.15879
H          5.38600       -0.76189       -0.60237
H          4.79359       -2.39742       -1.04415
H         -0.04593       -2.35351        1.79102
H          0.60534       -0.69860        1.71208
H         -1.12526       -0.74295        3.37643
H         -1.71201        0.20505        2.01708
H         -3.29969       -1.49814        2.93176
H         -2.98470       -1.79503        1.35537
H          0.25664       -1.65980       -0.45011
H         -1.43076       -1.75322       -0.20648
C         -0.27465       -1.31830        1.53120
C         -1.45857       -0.81674        2.33741
N         -0.54839       -1.27013        0.06416
N         -2.56981       -1.76679        2.28174
H         -0.62297       -0.27989       -0.26081
H         -4.99052       -1.36493       -1.69599
H         -4.72558       -1.35301        0.05108
H         -4.48843        0.92194       -0.93683
H         -3.00338        0.39019       -0.16220
H         -3.43162        0.67934       -3.00999
H         -2.09764        0.97517       -2.08256
H         -3.46845       -3.13493       -1.00920
H         -2.70863       -2.02605       -1.95678
C         -4.22833       -1.21694       -0.91597
C         -3.66418        0.19931       -1.01469
N         -3.12471       -2.18043       -1.03861
N         -2.87473        0.33869       -2.23536
