34
2msa1a1eda_319.log	Energy: -988689.0388730
S          2.47478        0.50360       -0.14478
O          2.81283       -0.65422        0.70790
O          1.78001        1.60191        0.50409
O          1.73505        0.01591       -1.42851
H          0.72832       -0.22623       -1.28262
C          3.98810        1.07841       -0.87069
H          4.45995        0.24613       -1.39187
H          3.74632        1.88899       -1.55751
H          4.61630        1.43399       -0.05368
S         -1.23682       -1.60901       -0.26785
O         -0.67993       -0.54299       -1.16540
O         -1.29674       -1.16391        1.15018
O         -0.50996       -2.89645       -0.41043
H          0.71842       -2.98980        1.00893
C         -2.90534       -1.83353       -0.83189
H         -3.40120       -0.85892       -0.81721
H         -2.86031       -2.22571       -1.84800
H         -3.39194       -2.54270       -0.16222
N          1.01628       -2.40852        1.81524
H          1.30943       -2.96103        2.61460
H          0.16101       -1.84420        2.00022
H          1.76570       -1.75933        1.48953
H         -3.68737        2.47434        0.84553
H         -3.07482        0.83416        1.03631
H         -1.52960        2.33691        2.11973
H         -0.76096        1.60085        0.71583
H         -1.66582        4.36833        0.89887
H         -0.21312        3.77142        0.43257
H         -2.93645        2.50865       -1.35861
H         -2.17012        1.09281       -1.23449
C         -2.88689        1.79046        0.53432
C         -1.53317        2.31329        1.01723
N         -2.99360        1.59858       -0.91107
N         -1.21232        3.60480        0.40866
