40
2msa1dma1eda_215.log	Energy: -1038023.6967734
S          1.56054        1.75011       -0.61362
O          2.47796        2.88516       -0.59331
O          0.19519        2.01738       -1.11256
O          1.46615        1.06673        0.74867
H         -0.19454        1.25765        1.19746
C          2.26395        0.51006       -1.69468
H          2.27419        0.92759       -2.70221
H          3.28792        0.31618       -1.37058
H          1.65307       -0.39640       -1.66128
S         -1.09427       -1.86591       -0.75857
O         -2.04849       -2.97316       -0.77790
O          0.33781       -2.28669       -0.95298
O         -1.20594       -0.98564        0.44524
H          1.70175       -0.54919        1.01541
C         -1.45280       -0.82298       -2.16540
H         -1.23726       -1.39255       -3.07003
H         -2.51397       -0.56934       -2.13218
H         -0.83824        0.07865       -2.10432
N          1.78615       -1.58856        1.14144
C          1.12233       -1.98715        2.39743
C          3.19942       -1.99070        1.04260
H          1.23043       -1.97319        0.32016
H          1.59727       -1.48091        3.24067
H          0.06997       -1.71267        2.31374
H          1.20487       -3.06839        2.52215
H          3.77563       -1.50819        1.83434
H          3.27733       -3.07533        1.13443
H          3.58632       -1.68265        0.07117
H         -2.42799        3.11414        1.83133
H         -1.22379        3.22518        0.49822
H         -3.54897        2.50326       -0.26713
H         -2.25093        1.37358       -0.66309
H         -4.50541        0.83187        0.94646
H         -3.22759       -0.18211        0.62804
H         -0.66116        1.91018        2.64673
H         -1.62442        0.73371        1.94090
C         -1.87609        2.56214        1.06672
C         -2.83534        1.79211        0.15903
N         -1.02640        1.55572        1.76624
N         -3.49902        0.74720        0.93421
