43
2msa1eda1tma_36.log	Energy: -1062691.5935287
S         -3.01895       -0.06260       -0.03281
O         -3.12173       -1.19298       -0.97218
O         -2.93857        1.27629       -0.63180
O         -1.86897       -0.29118        0.93661
C         -4.48470       -0.09230        0.98677
H         -5.34322        0.07426        0.33548
H         -4.55408       -1.06684        1.47018
H         -4.40616        0.70260        1.72857
S          3.22360       -0.18746       -0.04493
O          2.83548        0.65053       -1.19742
O          3.32682       -1.62900       -0.32382
O          2.32456        0.09048        1.13796
C          4.84559        0.35483        0.47527
H          5.54011        0.16410       -0.34350
H          4.80009        1.42100        0.69865
H          5.13117       -0.21405        1.36033
H          1.19601        2.38622       -0.96369
H         -0.28526        1.50572       -1.36224
H         -0.59683        3.98754       -1.63378
H         -1.70355        3.26337       -0.45868
H          0.67808        4.85335        0.19370
H         -0.85994        5.05705        0.71350
H          1.02881        1.04835        0.86070
H          0.16220        2.42545        1.34950
C          0.15574        2.22612       -0.67283
C         -0.65665        3.51514       -0.64525
N          0.16570        1.63567        0.69255
N         -0.17246        4.36218        0.44902
H         -0.66819        1.03811        0.85618
N         -0.40047       -2.40040        0.01818
C          0.63754       -2.68290        1.04514
H          1.15146       -1.75437        1.29804
H          0.14389       -3.10528        1.92169
H          1.36720       -3.38195        0.63409
C         -1.22431       -3.59395       -0.28907
H         -1.65407       -3.97439        0.63846
H         -2.02349       -3.29140       -0.96518
H         -0.58527       -4.35495       -0.74213
C          0.17427       -1.81396       -1.22309
H         -0.64796       -1.61591       -1.91131
H          0.69280       -0.88886       -0.97678
H          0.90016       -2.50924       -1.64621
H         -1.03344       -1.66198        0.41350
