37
2msa1ma1eda_302.log	Energy: -1013359.3351554
S          1.46973        2.04825        0.16629
O          1.47236        3.47261       -0.10116
O          2.71817        1.29674        0.05617
O          0.46211        1.29147       -0.79930
C          0.75684        1.76028        1.77274
H          1.40140        2.25419        2.50080
H         -0.24627        2.18936        1.78167
H          0.71808        0.68149        1.93849
S         -2.61324        0.11960       -0.24286
O         -2.37399       -0.66928        0.98496
O         -2.22790       -0.60780       -1.48023
O         -1.98760        1.48238       -0.18522
H         -0.52608        1.50009       -0.61663
C         -4.36498        0.42212       -0.34759
H         -4.86964       -0.54309       -0.39155
H         -4.66674        0.97646        0.54109
H         -4.55627        1.00117       -1.25080
N          2.94693       -1.23166       -1.53341
H          3.38085       -1.43663       -2.42739
C          3.72082       -1.81306       -0.43083
H          4.75844       -1.46243       -0.39061
H          3.24104       -1.53635        0.51213
H          3.72311       -2.90397       -0.51596
H          2.93859       -0.21709       -1.41863
H         -1.24701       -2.79736       -0.12787
H          0.12543       -3.66412       -0.86032
H         -0.01945       -3.88393        1.65956
H          1.52450       -3.21411        1.11069
H         -0.70673       -1.51215        2.01480
H          0.68315       -1.82761        2.86152
H         -0.45582       -1.18393       -1.41274
H          0.36012       -0.88046       -0.02765
C         -0.15814       -2.84382       -0.19843
C          0.45132       -3.00771        1.19220
N          0.28146       -1.56109       -0.79316
N          0.27925       -1.76326        1.93501
H          1.24160       -1.56894       -1.24485
