40
2msa1dma1eda_354.log	Energy: -1038016.9085077
S          3.34542       -0.76941        0.15952
O          4.44048       -1.58194        0.64115
O          2.79980        0.06991        1.37323
O          2.21652       -1.45343       -0.49737
H          0.51857       -1.46516       -0.31407
C          3.94769        0.45906       -0.97213
H          4.75611        0.99624       -0.47583
H          4.31797       -0.06908       -1.85153
H          3.12017        1.12774       -1.22465
S          0.07952        1.83947       -0.24001
O         -0.97740        1.09465       -0.99348
O          1.22530        2.25630       -1.05232
O          0.47785        1.03677        0.97023
H          1.89346        0.49840        1.18105
C         -0.71659        3.29940        0.39637
H         -1.02789        3.90456       -0.45566
H         -1.58038        2.99019        0.98794
H          0.00833        3.83845        1.00650
N         -0.51890       -1.52130       -0.27921
C         -0.93755       -1.85267        1.10202
C         -0.98821       -2.47613       -1.30186
H         -0.83525       -0.55707       -0.52902
H         -0.46829       -2.79336        1.39573
H         -0.59714       -1.04585        1.75131
H         -2.02722       -1.94217        1.11940
H         -0.55430       -3.45758       -1.10528
H         -2.07637       -2.53189       -1.25503
H         -0.66917       -2.12243       -2.28234
H         -5.43787        0.45723        1.01981
H         -4.98032        1.34879       -0.41987
H         -5.64271       -0.86797       -1.07376
H         -3.90714       -0.67607       -1.37188
H         -4.96957       -1.98921        1.03244
H         -4.41812       -2.78069       -0.27191
H         -3.11967        0.19862        1.53330
H         -2.67547        0.98484        0.16619
C         -4.66797        0.53189        0.23976
C         -4.66325       -0.76158       -0.58105
N         -3.41091        0.90471        0.86628
N         -4.31762       -1.91847        0.25505
