30
2msa1eda_137.log	Energy: -953186.4785921
S         -2.50809       -0.67507       -0.05851
O         -3.44502        0.39470       -0.34789
O         -1.54512       -1.06754       -1.07712
O         -3.34255       -2.00841        0.34453
H         -3.31574       -2.62108       -0.40504
C         -1.71921       -0.34553        1.49244
H         -0.94219       -1.08892        1.66435
H         -1.28826        0.65435        1.39565
H         -2.48743       -0.35768        2.26577
S          2.49995       -0.91048       -0.03246
O          3.59955       -1.50958        0.70548
O          2.80012        0.14225       -1.00346
O          1.40678       -0.36935        0.96695
H          1.37434        0.71161        0.97171
C          1.60054       -2.20793       -0.85289
H          2.27070       -2.63325       -1.60090
H          1.33525       -2.96014       -0.10971
H          0.70877       -1.78086       -1.31125
H          1.20855        3.85240       -0.30032
H          1.94934        2.37156       -0.96184
H         -0.29950        2.75920       -1.92473
H         -0.21748        1.24524       -1.02531
H         -1.42358        3.72907       -0.02475
H         -2.16466        2.29794       -0.28596
H          2.14046        2.52358        1.45806
H          0.49702        2.46903        1.57736
C          1.14116        2.75616       -0.33658
C         -0.20201        2.33455       -0.91605
N          1.29446        2.17931        1.01272
N         -1.28422        2.72310       -0.00658
