34
2msa1a1eda_65.log	Energy: -988708.9150660
S         -3.02827       -0.49361       -0.08647
O         -2.11672       -0.19315        1.06325
O         -2.80947       -1.83847       -0.64661
O         -2.96610        0.60667       -1.09529
C         -4.68882       -0.46370        0.56209
H         -4.77229       -1.24669        1.31590
H         -4.87092        0.51634        1.00302
H         -5.37612       -0.65018       -0.26333
S          2.80115       -0.80799        0.01943
O          1.65155       -0.67813       -0.94587
O          2.53686       -1.87270        1.01356
O          3.18986        0.49508        0.59198
C          4.18882       -1.35195       -0.96378
H          5.04557       -1.46059       -0.29820
H          3.93538       -2.30680       -1.42448
H          4.38667       -0.59656       -1.72444
N         -0.19791       -2.09984        0.41054
H          0.37743       -1.57074       -0.29306
H         -0.88489       -2.70004       -0.04795
H          0.49079       -2.58730        0.98739
H         -0.74642       -1.40809        0.95301
H          0.64994        1.25510       -1.07223
H          0.18701        2.74594       -1.93655
H          2.28768        2.98513       -0.51162
H          1.01055        4.12683       -0.05155
H          1.83187        1.71781        1.34992
H          1.52172        3.20362        1.97064
H         -1.71909        1.60256       -0.70642
H         -0.82833        1.92046        0.69379
C          0.31424        2.28966       -0.95304
C          1.28820        3.06489       -0.06699
N         -1.00626        2.24805       -0.26821
N          1.20758        2.52519        1.28738
H         -1.41896        3.17710       -0.19700
