40
2msa1dma1eda_436.log	Energy: -1038011.8002293
S          0.63621       -1.90656        0.44581
O          1.98436       -2.43985        0.31234
O          0.40912       -0.70557       -0.45756
O          0.22849       -1.55848        1.83743
H         -0.36571       -0.08821        2.11517
C         -0.53093       -3.13383       -0.11225
H         -0.30475       -3.36939       -1.15264
H         -0.40540       -4.01609        0.51587
H         -1.53716       -2.72382       -0.00764
S         -2.66376        0.39608       -0.63227
O         -2.10833        1.60519        0.00206
O         -3.10371       -0.64942        0.28438
O         -1.65626       -0.16253       -1.68470
H         -0.75843       -0.43942       -1.19727
C         -3.99922        0.88261       -1.69156
H         -4.77328        1.30434       -1.04999
H         -3.62880        1.62596       -2.39663
H         -4.36459       -0.00556       -2.20636
N          2.98773        0.85301       -1.32889
C          4.20530        0.32990       -0.72771
C          3.09996        1.00542       -2.76998
H          2.21777        0.22123       -1.11809
H          5.00790        1.07097       -0.81920
H          4.03686        0.13704        0.33493
H          4.55091       -0.61018       -1.18905
H          3.85339        1.76647       -3.00291
H          3.39134        0.07467       -3.28773
H          2.14432        1.34345       -3.18148
H          0.16222        2.74353        2.93317
H          0.94268        1.28133        3.60605
H          2.42869        2.24088        1.97719
H          1.80483        0.72222        1.33404
H          1.78241        2.46481       -0.27428
H          0.24605        2.08924        0.01981
H         -1.35638        0.85782        3.08987
H         -1.16690        1.27165        1.50169
C          0.51197        1.73291        2.70983
C          1.52933        1.75860        1.58104
N         -0.67377        0.90364        2.33598
N          1.05818        2.53427        0.44306
