32
2msa1a1dma_10.log	Energy: -953976.1361125
S         -2.71211       -0.43169       -0.04031
O         -1.73816       -0.61479        1.08056
O         -2.58427       -1.48470       -1.06745
O         -2.64075        0.95450       -0.58839
C         -4.34048       -0.58611        0.66726
H         -4.43037       -1.58333        1.09826
H         -4.45566        0.17846        1.43557
H         -5.06980       -0.44498       -0.13061
S          2.89430       -0.50625       -0.06266
O          4.04140       -0.11689       -0.87267
O          2.76119       -1.93550        0.28229
O          1.57267       -0.01722       -0.65294
C          3.02818        0.37285        1.49369
H          3.92661        0.01460        1.99737
H          3.12139        1.44006        1.28603
H          2.14477        0.16159        2.09810
N          0.02354       -2.22040       -0.32395
H          0.72404       -2.92879       -0.10886
H         -0.68726       -2.50035       -1.00297
H         -0.49736       -1.89702        0.50931
H          0.55608       -1.37982       -0.65611
N         -0.16482        1.97740       -0.21615
C          0.15856        3.10188       -1.11512
C         -0.19284        2.32156        1.22037
H         -1.10882        1.58053       -0.45894
H          1.14365        3.49796       -0.86299
H          0.16839        2.73459       -2.14113
H         -0.59750        3.88140       -1.00862
H          0.79477        2.66609        1.53282
H         -0.93181        3.10695        1.38765
H         -0.48285        1.42455        1.76932
H          0.53861        1.21126       -0.36426
