40
2msa1dma1eda_374.log	Energy: -1038013.4942601
S         -0.66902        1.90587       -0.35321
O         -1.09552        1.77043        1.04696
O         -1.65874        1.48451       -1.35744
O          0.65033        1.18673       -0.60972
C         -0.29671        3.62507       -0.64156
H         -1.22057        4.18784       -0.50544
H          0.45459        3.94035        0.08274
H          0.07559        3.73023       -1.66039
S          3.48852       -0.40096        0.25776
O          4.34888        0.12312       -0.78743
O          2.61471       -1.52840       -0.08649
O          2.63062        0.74174        0.92714
H          1.81593        0.98589        0.36111
C          4.47457       -0.85640        1.66401
H          5.15029       -1.64542        1.33279
H          5.03620        0.02052        1.98507
H          3.81277       -1.21273        2.45241
N         -3.40185       -0.30722        1.06047
C         -3.96794       -0.52878        2.38330
C         -4.38918        0.17147        0.10196
H         -2.65261        0.38191        1.12982
H         -4.71271       -1.33218        2.33718
H         -3.17895       -0.83547        3.07564
H         -4.46300        0.36489        2.79750
H         -5.11899       -0.62037       -0.10593
H         -4.94287        1.05447        0.46212
H         -3.88448        0.44673       -0.82681
H         -1.78782       -0.77946       -1.73473
H         -0.94463       -1.84152       -2.87900
H         -2.92864       -2.93483       -1.65614
H         -1.40694       -3.82215       -1.49125
H         -2.50541       -1.97624        0.54473
H         -2.15157       -3.60515        0.70406
H          0.30997       -0.44354       -0.98634
H         -0.17007       -1.78634       -0.08710
C         -1.19318       -1.69143       -1.82767
C         -1.92188       -2.89347       -1.21816
N          0.04820       -1.45497       -1.04605
N         -1.89358       -2.74877        0.23077
H          0.87623       -1.96287       -1.35668
