42
2msa2eda_604.log	Energy: -1072734.8183105
S          3.27440       -0.37472        0.37330
O          4.38378       -1.31194        0.34554
O          2.20599       -0.58794        1.34757
O          2.62381       -0.26242       -1.07595
H          1.76107       -0.77463       -1.12065
C          3.91239        1.27298        0.54445
H          4.42947        1.30281        1.50474
H          4.61883        1.44402       -0.26850
H          3.09099        1.99809        0.52178
S         -0.68041       -1.94923       -0.33307
O          0.37247       -1.57084       -1.30352
O         -1.82256       -2.65039       -0.95987
O         -1.18287       -0.76234        0.45616
H         -2.46892       -0.37240       -0.25324
C          0.07287       -3.02726        0.86069
H          0.45543       -3.89670        0.32526
H          0.88350       -2.46892        1.33380
H         -0.68630       -3.32066        1.58554
H         -5.45956       -0.52056       -0.15025
H         -4.28114       -1.36888        0.87900
H         -5.15937        0.72011        1.99608
H         -3.41424        0.75458        1.74171
H         -5.39677        2.29533        0.25665
H         -3.93984        2.75715        0.84004
H         -3.42657       -1.11686       -1.37246
H         -3.55768        0.57315       -1.20014
C         -4.47766       -0.44891        0.32582
C         -4.37965        0.77935        1.22694
N         -3.44343       -0.32466       -0.72461
N         -4.44148        1.99021        0.40720
H          0.38066        3.72741       -1.71949
H          1.80576        2.67398       -1.71983
H         -0.14194        1.27204       -1.53903
H          0.72305        1.21972       -0.01143
H         -1.78713        2.60647       -0.48556
H         -1.34706        1.54082        0.68454
H          1.97719        4.59458       -0.15286
H          0.80002        3.88561        0.74481
C          0.98853        3.05041       -1.09394
C          0.13306        1.87041       -0.65945
N          1.55254        3.70504        0.08505
N         -1.02556        2.32112        0.12229
