32
2msa2ma_191.log	Energy: -953957.2238745
S          2.87604       -0.35727        0.36570
O          4.25865       -0.82211        0.32097
O          2.07810       -0.56937       -0.87234
O          2.73785        1.08604        0.80035
H          1.82380        1.76147       -0.15465
C          2.04434       -1.28600        1.65027
H          2.12839       -2.34607        1.40512
H          2.54417       -1.08014        2.59735
H          0.99885       -0.97396        1.68074
S         -1.42541       -0.51082       -0.77633
O         -1.17401       -0.24552        0.64618
O         -1.05395        0.55006       -1.71503
O         -2.94144       -0.84962       -0.96012
H         -3.47436       -0.75652       -0.01932
C         -0.60912       -2.00429       -1.26423
H         -0.89987       -2.22175       -2.29217
H          0.46516       -1.80280       -1.18727
H         -0.92491       -2.80008       -0.58943
N          1.08642        2.20492       -0.82934
H          1.57496        2.74057       -1.54242
C          0.11417        3.01991       -0.07519
H         -0.64726        3.41441       -0.74847
H         -0.35467        2.36864        0.66248
H          0.63774        3.83204        0.42974
H          0.60119        1.42059       -1.28997
N         -4.10313       -0.55099        1.27641
H         -4.97513       -1.05634        1.40339
C         -4.28774        0.89436        1.48947
H         -4.67318        1.12819        2.48630
H         -3.32093        1.38264        1.35506
H         -4.97935        1.27886        0.73764
H         -3.42922       -0.91760        1.94453
