31
2msa1tma_37.log	Energy: -943105.9853577
S         -2.40030       -0.63698        0.00048
O         -1.73371       -1.69692       -0.71654
O         -1.76914       -0.06005        1.19303
O         -3.84306       -1.17351        0.50851
H         -3.83960       -1.18353        1.47696
C         -2.91100        0.64053       -1.11416
H         -1.99052        1.08050       -1.50412
H         -3.50371        0.17689       -1.90273
H         -3.49199        1.37158       -0.55281
S          0.87863        2.03983       -0.03895
O          0.75311        3.48282       -0.08007
O          0.15007        1.23728       -1.02213
O          0.45051        1.52658        1.41844
H         -0.32080        0.91927        1.34209
C          2.58998        1.58465       -0.05619
H          2.99887        1.94299       -1.00224
H          3.07522        2.08593        0.78191
H          2.65230        0.48963        0.02382
N          2.38581       -1.66619       -0.00562
C          1.79045       -1.87065       -1.31845
H          0.86362       -1.29828       -1.39629
H          2.48141       -1.52088       -2.09219
H          1.56199       -2.93509       -1.51180
C          3.64732       -2.37369        0.12014
H          4.34560       -2.03036       -0.64960
H          4.09213       -2.17337        1.09978
H          3.52873       -3.46884        0.01273
C          1.46331       -2.04106        1.05388
H          1.89843       -1.79653        2.02775
H          0.52768       -1.48944        0.94185
H          1.22392       -3.12098        1.03849
