37
2msa1ma1eda_154.log	Energy: -1013362.8886349
S         -0.16543        2.11109       -0.31461
O         -0.35818        1.17197       -1.45663
O          1.24868        2.34916        0.01327
O         -0.95987        1.67616        0.88209
C         -0.87490        3.66549       -0.82295
H         -0.33756        4.00834       -1.70727
H         -1.92913        3.50358       -1.04831
H         -0.76080        4.37370       -0.00215
S         -2.37575       -1.49550        0.10453
O         -3.30075       -2.52036        0.54234
O         -0.93718       -1.73407        0.23131
O         -2.75724       -0.16629        0.86981
H         -2.03244        0.54043        0.82384
C         -2.71298       -1.08685       -1.59506
H         -2.47743       -1.96991       -2.19094
H         -3.77161       -0.84155       -1.67971
H         -2.07693       -0.24215       -1.86948
N          1.10001       -0.27832        2.04764
H          0.28820        0.32862        1.92641
C          2.17173        0.45505        2.72521
H          1.91383        0.76652        3.74488
H          3.07226       -0.16581        2.77681
H          2.39696        1.34871        2.13809
H          0.79105       -1.08265        2.58444
H          2.90205       -0.19470       -2.08153
H          2.93477        0.72052       -0.56498
H          4.89550       -0.82356       -0.68115
H          3.80754       -1.30339        0.62438
H          4.02937       -2.64355       -1.96889
H          4.11376       -3.29398       -0.47077
H          0.74814       -0.24667       -1.07861
H          1.42206       -1.78010       -0.87176
C          2.84201       -0.27986       -0.99225
C          3.90139       -1.23769       -0.46485
N          1.50562       -0.79125       -0.62953
N          3.67087       -2.56972       -1.02276
H          1.34655       -0.68608        0.43265
