37
2msa1ma1eda_109.log	Energy: -1013365.6682508
S          2.19181       -0.86601       -0.57487
O          2.49925       -2.28628       -0.38438
O          3.31108        0.05830       -0.81489
O          1.37165       -0.33833        0.61229
H          1.83405        1.07254        1.02011
C          1.07758       -0.74780       -1.96423
H          1.59258       -1.16290       -2.83134
H          0.16629       -1.30672       -1.74354
H          0.82365        0.29919       -2.13007
S         -2.45703       -0.02692       -0.36879
O         -1.92679        0.88431       -1.39283
O         -2.10838        0.36375        1.02734
O         -2.11587       -1.46710       -0.61713
H         -1.15779       -1.99550        0.60550
C         -4.23871        0.05318       -0.48725
H         -4.54407        1.08313       -0.30057
H         -4.52366       -0.25356       -1.49389
H         -4.66857       -0.61791        0.25655
N         -0.51210       -2.06123        1.43834
H          0.24165       -1.35823        1.22858
C          0.06045       -3.40678        1.64594
H          0.63377       -3.42144        2.57325
H         -0.73945       -4.14630        1.69000
H          0.73395       -3.61718        0.81458
H         -1.05476       -1.71298        2.22651
H          2.03649        3.96386        0.27811
H          2.27330        2.54989       -0.79100
H         -0.11203        3.61545       -0.85025
H         -0.05798        1.88506       -0.58485
H         -0.94524        3.84196        1.27504
H         -1.16711        2.20641        1.24880
H          3.00448        2.19295        1.55430
H          1.36238        2.38624        1.97091
C          1.71716        2.93991        0.06332
C          0.19942        2.84653       -0.13627
N          2.04034        2.10191        1.24656
N         -0.47557        2.95298        1.15934
