28
2msa1dma_66.log	Energy: -918452.1022694
S         -2.67543       -0.78001       -0.10885
O         -3.69336       -1.79725       -0.19614
O         -1.71784       -0.64314       -1.21679
O         -1.86290       -1.03390        1.23209
H         -0.98370       -0.57003        1.21543
C         -3.42435        0.80997        0.15833
H         -4.01907        1.03213       -0.72872
H         -4.05971        0.73725        1.04089
H         -2.63449        1.55284        0.29033
S          0.58575        1.36591        0.06136
O          0.47679        0.27744        1.04938
O         -0.40242        2.42830        0.16674
O          0.55531        0.72567       -1.39323
H         -0.28624        0.19931       -1.47154
C          2.23225        1.99722        0.07503
H          2.37347        2.46446        1.05048
H          2.90002        1.13599       -0.06985
H          2.31348        2.73473       -0.72348
N          3.34636       -1.00873       -0.12729
C          3.52986       -1.36281        1.27331
C          4.38784       -1.54150       -0.99270
H          2.43974       -1.34065       -0.44012
H          4.43989       -0.88440        1.65236
H          2.68022       -0.99332        1.85292
H          3.62701       -2.44832        1.44129
H          5.34411       -1.06873       -0.74381
H          4.51896       -2.63278       -0.90026
H          4.15846       -1.30610       -2.03523
