30
2msa1eda_157.log	Energy: -953183.4723197
S         -2.89512       -0.49490       -0.11409
O         -2.76883       -1.29570       -1.31152
O         -2.71091        0.96033       -0.22851
O         -1.94165       -1.03339        1.03494
H         -1.07313       -0.53833        1.03332
C         -4.47002       -0.79163        0.64514
H         -5.22658       -0.46155       -0.06733
H         -4.55982       -1.86181        0.83102
H         -4.52575       -0.22057        1.57085
S          0.67447        1.33586       -0.05002
O          1.00955        0.74434       -1.33279
O          0.27204        0.41092        1.02538
O         -0.46999        2.42577       -0.21883
H         -1.34585        1.96118       -0.29453
C          1.99793        2.34448        0.53229
H          2.86068        1.66568        0.58501
H          2.16567        3.12924       -0.20586
H          1.72164        2.75680        1.50185
H          4.84034       -2.04670       -0.16349
H          4.64336       -1.23132        1.40512
H          2.93160       -2.94485        1.02577
H          2.20503       -1.33948        1.20127
H          1.52108       -2.91010       -0.74938
H          1.73694       -1.33472       -1.09536
H          5.06039        0.35511       -0.33767
H          3.74090       -0.12614       -1.15480
C          4.20620       -1.35215        0.40718
C          2.81926       -1.96958        0.54026
N          4.12693       -0.02620       -0.21811
N          2.21478       -2.17276       -0.77598
