22
2msa1a_23.log	Energy: -869135.5123746
S          2.43039       -0.08435        0.14181
O          3.01794        0.21765        1.42884
O          1.69707        0.98594       -0.55331
O          1.49384       -1.36192        0.22316
H          0.54464       -1.09211        0.38938
C          3.67225       -0.70536       -0.96101
H          4.41330        0.08595       -1.07791
H          4.12057       -1.58663       -0.50249
H          3.20120       -0.94653       -1.91287
S         -1.66282        0.51979       -0.14184
O         -0.96675       -0.52138        0.64087
O         -2.03335        0.18180       -1.50237
O         -0.78119        1.84033       -0.10056
H          0.17316        1.61501       -0.27502
C         -3.07274        1.05993        0.77578
H         -3.74246        0.19376        0.79832
H         -2.74336        1.34790        1.77341
H         -3.51665        1.90035        0.24210
N         -3.80736       -2.04147        0.10532
H         -3.64008       -1.91996       -0.88903
H         -4.51445       -2.75865        0.22105
H         -2.94297       -2.38255        0.51464
