37
2msa1ma1eda_374.log	Energy: -1013355.4648778
S          2.66544        0.04165       -0.50053
O          3.73739        0.51418       -1.35252
O          1.72183       -0.84192       -1.40536
O          1.84843        1.04586        0.20060
H          0.27138        1.74806       -0.39558
C          3.29428       -1.08499        0.71762
H          3.73814       -1.93139        0.19373
H          4.05212       -0.54049        1.28293
H          2.46799       -1.37338        1.37829
S         -1.79364       -1.21375       -0.61246
O         -1.77839       -0.17573       -1.68674
O         -2.50692       -0.79563        0.60339
O         -0.41087       -1.71338       -0.32177
H          0.86576       -1.15534       -0.94743
C         -2.67073       -2.60238       -1.30000
H         -2.15255       -2.92184       -2.20396
H         -2.67542       -3.39621       -0.55311
H         -3.68717       -2.28025       -1.52649
N          0.55009       -0.75044        2.47058
H          0.66969        0.16452        2.04323
C         -0.07745       -0.62545        3.78037
H         -1.07342       -0.15335        3.76844
H         -0.18939       -1.61593        4.23083
H          0.56690       -0.03716        4.44105
H         -0.04538       -1.27291        1.83359
H         -2.85059        1.77452       -0.03647
H         -2.80405        3.32281        0.80934
H         -1.89060        3.44258       -1.54339
H         -0.69204        3.93418       -0.31916
H         -0.89280        1.18071       -1.45554
H          0.22917        2.35456       -1.93216
H         -1.31342        2.37379        2.28940
H         -1.68422        0.91687        1.58777
C         -2.17966        2.51528        0.40895
C         -1.29487        3.10257       -0.69273
N         -1.35671        1.86413        1.41731
N         -0.36197        2.04661       -1.16267
