37
2msa1ma1eda_453.log	Energy: -1013353.5151557
S         -1.47551       -1.62450        0.41233
O         -2.74676       -2.33597        0.51851
O         -1.04567       -0.94870        1.68318
O         -1.46958       -0.58291       -0.68678
H         -1.64386        0.74833       -0.03287
C         -0.19676       -2.77849       -0.02599
H         -0.49408       -3.25675       -0.95963
H          0.75323       -2.25186       -0.15423
H         -0.13238       -3.51548        0.77519
S          3.17783       -0.07667       -0.41159
O          2.91961       -1.50016       -0.65852
O          3.42605        0.26954        1.01425
O          2.09582        0.81713       -0.97197
H          1.12593        0.94032        0.27498
C          4.65439        0.35970       -1.31404
H          5.46928       -0.25810       -0.93584
H          4.47761        0.15708       -2.37050
H          4.86256        1.41693       -1.15032
N         -3.76601        1.38892       -1.71279
H         -4.23625        2.01887       -2.35481
C         -4.73474        0.48106       -1.07176
H         -5.36236       -0.05756       -1.78998
H         -4.19034       -0.26235       -0.48329
H         -5.38460        1.05644       -0.40665
H         -3.11305        0.83301       -2.26217
H         -0.33839        2.32796        2.50100
H          0.93732        3.08836        1.53546
H         -1.23805        3.69283        0.60073
H         -0.33369        2.69174       -0.55237
H         -2.41404        1.58104        1.22857
H         -2.68516        1.95222       -0.40515
H          1.64251        0.87239        1.80083
H          0.11200        0.21519        1.48352
C          0.14889        2.33304        1.52124
C         -0.83853        2.69262        0.41723
N          0.76518        1.01774        1.28168
N         -1.95437        1.72892        0.33056
