38
2msa1ma1tma_93.log	Energy: -1003278.0676372
S          0.97620        1.93864       -0.13136
O          1.94296        2.96119        0.25857
O          0.33198        1.27950        1.06544
O          1.52306        0.88366       -1.04159
H          2.13441       -0.35553       -0.27970
C         -0.34861        2.70268       -1.04119
H         -0.82790        3.43202       -0.38765
H          0.08526        3.19182       -1.91355
H         -1.04148        1.91518       -1.34292
S         -1.34389       -1.39122       -0.44023
O         -0.20876       -2.29946       -0.62362
O         -1.60654       -0.41583       -1.49056
O         -1.20694       -0.66795        0.95616
H         -0.56129        0.15650        0.93349
C         -2.80907       -2.34377       -0.13565
H         -3.03904       -2.86489       -1.06577
H         -2.59585       -3.05507        0.66225
H         -3.60517       -1.64864        0.15141
N         -4.17563        0.37331        1.18734
H         -4.84714        0.62687        1.90364
C         -4.08691        1.41770        0.16592
H         -3.77520        2.40115        0.54793
H         -3.37179        1.10417       -0.59889
H         -5.06033        1.53299       -0.31933
H         -3.27485        0.25518        1.64199
N          2.77503       -1.03503        0.23488
C          3.99871       -0.24515        0.51444
H          4.41599        0.10305       -0.43031
H          3.72452        0.62227        1.11665
H          4.71988       -0.87018        1.04610
C          2.10312       -1.46034        1.48829
H          1.81133       -0.56633        2.04074
H          1.21294       -2.02989        1.22353
H          2.79570       -2.07096        2.07298
C          3.02961       -2.17435       -0.67767
H          2.07365       -2.64767       -0.90124
H          3.47423       -1.78997       -1.59622
H          3.71226       -2.87841       -0.19528
