30
2msa1eda_76.log	Energy: -953203.0406817
S          2.05422       -0.90718       -0.01018
O          1.44737       -0.16739       -1.13195
O          1.06507       -1.73435        0.74332
O          2.83523       -0.01005        0.89434
C          3.22983       -2.06787       -0.67790
H          2.69090       -2.74774       -1.33802
H          3.98524       -1.50945       -1.23084
H          3.68010       -2.61071        0.15319
S         -2.21578       -0.67183        0.02790
O         -2.19265        0.01937       -1.25816
O         -1.90513        0.12921        1.21011
O         -1.33338       -1.96753       -0.00690
H         -0.35494       -1.81574        0.28338
C         -3.81395       -1.42386        0.22648
H         -4.54891       -0.61861        0.21872
H         -3.97945       -2.10363       -0.60906
H         -3.82931       -1.95642        1.17670
H          0.09638        1.27840        1.11662
H          0.49750        2.78488        1.95872
H         -1.64646        2.83088        0.54382
H         -0.49580        4.12310        0.14994
H         -0.90277        1.66535       -1.39974
H         -0.95917        3.22079       -1.91435
H          2.29163        1.52618        0.58843
H          1.44319        2.15309       -0.73016
C          0.37800        2.32339        0.97744
C         -0.66008        3.03932        0.11170
N          1.68521        2.32727        0.26462
N         -0.49769        2.59342       -1.26757
H          2.16933        3.21901        0.33730
