42
2msa2eda_349.log	Energy: -1072753.3556305
S          2.20596       -1.64865       -0.34505
O          2.31650       -0.68097        0.80283
O          1.60533       -1.03273       -1.53706
O          1.53379       -2.89811        0.09649
C          3.88145       -2.10334       -0.74997
H          4.34372       -2.53244        0.13891
H          3.84700       -2.83299       -1.55913
H          4.40731       -1.20191       -1.06554
S          0.83226        2.39553        0.26096
O         -0.17069        1.83270        1.16596
O          0.53223        2.33684       -1.16517
O          2.24688        1.80009        0.57112
H          2.25719        0.75760        0.61863
C          1.13698        4.08942        0.70704
H          1.94568        4.46803        0.08256
H          0.21356        4.63709        0.51652
H          1.40113        4.12915        1.76325
H         -0.70593       -1.90587        2.65568
H         -0.12742       -0.46443        1.78234
H         -2.28580       -0.04206        3.06821
H         -2.39064        0.28642        1.34546
H         -3.83649       -1.70836        2.77743
H         -4.04538       -1.13193        1.23561
H         -0.13473       -2.49209        0.41891
H         -1.83268       -2.56073        0.66198
C         -0.93549       -1.19168        1.86055
C         -2.28420       -0.51536        2.08121
N         -1.01101       -1.95359        0.58963
N         -3.36987       -1.48470        1.90839
H         -1.15232       -1.29878       -0.24135
H         -3.65703        0.07101       -2.97166
H         -4.34193        1.23979       -1.83950
H         -1.98280        1.70698       -2.27391
H         -2.23920        1.33540       -0.57259
H         -1.25113       -0.63673       -2.51314
H         -0.32299        0.20629       -1.50635
H         -5.03363       -0.94100       -1.23850
H         -3.50246       -1.47190       -1.11643
C         -3.64374        0.40067       -1.91864
C         -2.24888        0.90227       -1.57699
N         -4.09030       -0.65160       -0.99915
N         -1.26219       -0.18455       -1.60096
