35
2msa1ma1dma_56.log	Energy: -978629.6666096
S          1.94108       -1.05926       -0.20885
O          1.90369       -0.50041        1.16713
O          1.99655       -0.01709       -1.25238
O          0.83885       -2.04976       -0.44778
C          3.43523       -2.02538       -0.31548
H          4.27953       -1.35674       -0.14615
H          3.39723       -2.79940        0.45082
H          3.48542       -2.46721       -1.31063
S         -2.20105       -0.83757        0.27321
O         -3.59597       -0.61564       -0.05419
O         -1.47222        0.22724        0.96170
O         -1.45285       -1.19049       -1.07554
H         -0.49628       -1.51591       -0.87889
C         -2.01917       -2.32785        1.22867
H         -2.49563       -2.15244        2.19365
H         -2.51253       -3.13898        0.69337
H         -0.95115       -2.52014        1.34515
N         -0.47361        1.84736       -1.62986
H          0.14556        2.15670       -2.37304
C         -1.81155        2.43169       -1.77231
H         -2.28519        2.21098       -2.73594
H         -2.45332        2.04054       -0.97975
H         -1.74884        3.51762       -1.65647
H         -0.52198        0.83404       -1.71653
N          0.81065        2.04555        0.81627
C          0.01332        2.74481        1.83997
C          2.09519        2.69828        0.49792
H          1.01470        1.06792        1.10509
H         -0.19913        3.75898        1.49472
H         -0.91630        2.19685        1.98481
H          0.57470        2.78882        2.77555
H          1.90263        3.70521        0.12098
H          2.71305        2.75090        1.39626
H          2.59253        2.09712       -0.26389
H          0.25269        1.96410       -0.09805
