44
2msa2tma_06.log	Energy: -1052610.6634285
S          1.68830       -1.41433       -0.87539
O          1.00638       -1.63393        0.43266
O          2.92741       -2.17557       -1.04423
O          1.85986        0.06203       -1.12164
H          1.70134        0.86744        0.24958
C          0.54541       -1.94021       -2.14316
H          0.36600       -3.00916       -2.01658
H         -0.37910       -1.36485       -2.04542
H          1.01632       -1.75570       -3.10933
S         -1.73314        1.34453       -0.89166
O         -2.79478        2.33689       -0.69892
O         -2.17644        0.04355       -1.45416
O         -0.93358        1.10007        0.36864
H         -1.32990       -0.56623        0.76931
C         -0.56548        2.02420       -2.06044
H         -1.07457        2.11648       -3.02044
H         -0.26265        3.01104       -1.70596
H          0.29054        1.34894       -2.12128
N         -1.90012       -1.31559        1.23934
C         -1.22857       -1.63968        2.51879
H         -0.22273       -1.99246        2.29250
H         -1.18603       -0.73520        3.12755
H         -1.80447       -2.40777        3.04033
C         -3.24329       -0.71852        1.45612
H         -3.12426        0.22057        1.99643
H         -3.68703       -0.51202        0.48264
H         -3.85606       -1.42040        2.02645
C         -1.97107       -2.49670        0.34291
H         -2.35323       -2.15488       -0.61867
H         -0.96242       -2.89206        0.23145
H         -2.63823       -3.23695        0.79175
N          2.02335        1.44073        1.09114
C          3.49061        1.23045        1.13023
H          3.68469        0.16550        1.26143
H          3.91479        1.54733        0.17802
H          3.91817        1.80457        1.95585
C          1.66511        2.85216        0.82580
H          2.11756        3.15219       -0.12037
H          0.57877        2.91253        0.75591
H          2.04111        3.48175        1.63634
C          1.36768        0.92250        2.31293
H          0.29973        1.11415        2.22160
H          1.54536       -0.15235        2.35634
H          1.78797        1.42897        3.18606
