29
2msa1a1ma_117.log	Energy: -929295.3495346
S         -1.33374        0.18818        0.66336
O         -2.47341        0.23597        1.57200
O         -0.01778        0.50319        1.34801
O         -1.45613        1.09605       -0.52734
H         -0.26503        2.05941       -0.58055
C         -1.18940       -1.46149        0.01592
H         -1.00044       -2.13218        0.85556
H         -2.15071       -1.70076       -0.44979
H         -0.36585       -1.48725       -0.69969
S          2.71913       -0.37833       -0.28845
O          2.86590        1.08394       -0.43105
O          1.99388       -1.05580       -1.35207
O          2.12090       -0.71218        1.11507
H          1.18451       -0.24455        1.24278
C          4.33887       -1.07848       -0.11390
H          4.84275       -0.58593        0.71682
H          4.22495       -2.14673        0.06844
H          4.86288       -0.90066       -1.05327
N          0.60341        2.69481       -0.46176
H          0.55537        3.09029        0.47508
H          0.62669        3.43540       -1.15704
H          1.46251        2.10794       -0.51898
N         -4.49467       -1.18857       -0.33825
H         -5.34271       -1.72150       -0.18168
C         -4.71024       -0.14343       -1.33751
H         -5.51479        0.56588       -1.09103
H         -3.78490        0.42691       -1.45536
H         -4.94456       -0.60437       -2.30213
H         -4.22020       -0.77209        0.54825
