32
2msa2ma_110.log	Energy: -953960.4626768
S          2.37769       -0.60939       -0.56776
O          3.48632       -1.08616       -1.36451
O          1.76298       -1.54550        0.38951
O          1.26422       -0.03681       -1.51934
H          0.31743       -0.30665       -1.24879
C          2.88508        0.82801        0.34388
H          3.64903        0.50427        1.05201
H          3.30258        1.54269       -0.36589
H          2.00798        1.24793        0.84750
S         -2.31153       -0.14042       -0.45918
O         -1.04765       -0.84207       -0.86324
O         -2.24767        1.31793       -0.60145
O         -2.71164       -0.60523        0.90445
H         -1.39483       -1.27996        1.59456
C         -3.56710       -0.73383       -1.57364
H         -3.28320       -0.44392       -2.58543
H         -3.62594       -1.81810       -1.48193
H         -4.51134       -0.26815       -1.29062
N          0.03081        2.49372        0.98461
H         -0.85578        2.12037        0.64363
C          0.62111        3.29213       -0.09502
H         -0.01979        4.11322       -0.44192
H          1.57485        3.71751        0.23474
H          0.82021        2.63843       -0.94841
H         -0.19223        3.09691        1.77069
N         -0.45146       -1.54419        1.99318
H         -0.52112       -2.43565        2.47822
C          0.04114       -0.46184        2.87838
H          1.02174       -0.73331        3.26909
H          0.12082        0.45249        2.28323
H         -0.66821       -0.31248        3.69234
H          0.20992       -1.64956        1.19881
