25
2msa1ma_59.log	Energy: -893791.0015546
S          1.27899        0.87174       -0.05280
O          1.65062        0.54348       -1.41525
O          0.71293       -0.21294        0.77126
O          0.26464        2.09436       -0.02150
H         -0.66954        1.76392       -0.11400
C          2.65092        1.57716        0.80760
H          3.43787        0.81354        0.76057
H          2.94880        2.48009        0.27406
H          2.34235        1.79878        1.82845
S         -2.66133       -0.32776       -0.15653
O         -2.82449       -0.93957       -1.45657
O         -2.19033        1.06488       -0.09816
O         -1.73115       -1.21015        0.77817
H         -0.78854       -0.87878        0.75467
C         -4.18079       -0.43524        0.75208
H         -4.92810        0.11570        0.18032
H         -4.45388       -1.48762        0.82860
H         -4.03164        0.00956        1.73498
N          4.19703       -1.06370       -0.30200
H          3.71307       -0.82715       -1.16381
C          3.62197       -2.27569        0.28497
H          3.68974       -3.16675       -0.35506
H          4.12684       -2.49389        1.23033
H          2.56707       -2.09618        0.50736
H          5.17370       -1.20684       -0.53479
