38
2msa1ma1tma_130.log	Energy: -1003267.5442218
S          2.70741       -1.29234        0.19492
O          3.69494       -2.34872        0.29232
O          1.71110       -1.13455        1.25158
O          1.95126       -1.49243       -1.19281
H          1.02102       -1.13217       -1.15993
C          3.53752        0.26079       -0.03510
H          4.10739        0.44911        0.87644
H          4.20881        0.15675       -0.88793
H          2.79025        1.04890       -0.19745
S         -1.65743       -0.96581       -0.30027
O         -0.53790       -0.62999       -1.20599
O         -2.91374       -1.30648       -1.03440
O         -1.92627        0.11642        0.70419
H         -3.39653        0.79270        0.38170
C         -1.17797       -2.40707        0.62041
H         -0.99749       -3.21059       -0.09479
H         -0.26341       -2.16133        1.16458
H         -1.99097       -2.66755        1.29807
N         -4.33777        0.73049       -0.10429
H         -4.52914        1.57923       -0.63101
C         -5.41914        0.37292        0.83747
H         -6.35015        0.21569        0.29348
H         -5.12964       -0.54799        1.34259
H         -5.54329        1.16813        1.57211
H         -4.10293       -0.06130       -0.75172
N          1.32337        2.69704       -0.08434
C          0.71487        2.28951        1.17220
H          0.21797        1.32505        1.05330
H          1.48725        2.18682        1.94098
H         -0.03320        3.02537        1.52804
C          2.00930        3.96786        0.04500
H          2.77591        3.89960        0.82347
H          2.50073        4.22509       -0.89847
H          1.32125        4.79380        0.31325
C          0.34952        2.72210       -1.16127
H          0.84653        2.97062       -2.10436
H         -0.11218        1.73703       -1.26287
H         -0.44685        3.47403       -0.98471
