44
2msa2tma_08.log	Energy: -1052610.7224270
S          1.89030       -1.13113       -0.93118
O          3.06791       -1.99841       -0.85462
O          2.15199        0.25567       -1.39775
O          1.11804       -1.08005        0.36880
H          1.24209        0.66194        0.74395
C          0.76903       -1.84437       -2.12673
H          1.24167       -1.75638       -3.10569
H          0.62425       -2.89782       -1.88211
H         -0.17906       -1.30142       -2.09611
S         -1.89003        1.13030       -0.93277
O         -3.06766        1.99782       -0.85989
O         -2.15110       -0.25748       -1.39686
O         -1.11973        1.08182        0.36848
H         -1.24274       -0.66126        0.74400
C         -0.76658        1.84039       -2.12815
H         -1.23767        1.75073       -3.10771
H         -0.62108        2.89418       -1.88550
H          0.18075        1.29628       -2.09454
N         -1.67203       -1.47022        1.25747
C         -1.52073       -2.69382        0.43302
H         -1.96547       -2.49303       -0.54097
H         -0.45581       -2.89309        0.32643
H         -2.02774       -3.52142        0.93558
C         -0.95244       -1.58782        2.54566
H          0.10245       -1.75530        2.32669
H         -1.08421       -0.65676        3.09851
H         -1.37104       -2.41971        3.11664
C         -3.10216       -1.11936        1.45221
H         -3.15800       -0.15825        1.96328
H         -3.56442       -1.02517        0.47010
H         -3.58204       -1.90291        2.04314
N          1.67136        1.47164        1.25653
C          1.52024        2.69428        0.43062
H          1.96514        2.49235       -0.54306
H          0.45533        2.89344        0.32366
H          2.02719        3.52243        0.93231
C          0.95163        1.59089        2.54449
H         -0.10322        1.75828        2.32520
H          1.08316        0.66049        3.09851
H          1.37032        2.42339        3.11449
C          3.10145        1.12088        1.45180
H          3.15720        0.16059        1.96442
H          3.56368        1.02507        0.46982
H          3.58148        1.90532        2.04143
