42
2msa2eda_205.log	Energy: -1072757.7834879
S         -2.94242       -0.27243        0.42729
O         -1.98346       -1.37790        0.54222
O         -3.37258        0.11424       -0.90629
O         -2.40194        0.96801        1.22625
H         -1.43232        1.20717        0.91917
C         -4.36890       -0.66509        1.41147
H         -4.84068       -1.53259        0.94901
H         -4.04237       -0.89315        2.42541
H         -5.04221        0.19167        1.39638
S          0.33648        1.66680       -0.93460
O          1.64496        2.32983       -1.02523
O         -0.06516        1.47662        0.52120
O          0.22194        0.39336       -1.67047
H         -0.03334       -1.08968        0.35018
C         -0.89528        2.76528       -1.60840
H         -0.87391        3.69584       -1.04086
H         -0.64129        2.94407       -2.65350
H         -1.86629        2.27207       -1.53138
H          1.85958       -3.35179        0.26873
H          0.11564       -3.48637        0.63636
H          0.57474       -4.02512       -1.72098
H         -0.45707       -2.59369       -1.57648
H          1.60361       -2.57630       -3.13484
H          1.30760       -1.25403       -2.22406
H          1.05298       -1.42662        1.55725
H          1.66884       -0.95964        0.11537
C          0.86976       -2.93102        0.07317
C          0.56277       -2.97309       -1.41900
N          0.87154       -1.53197        0.55291
N          1.57224       -2.23854       -2.18008
H          3.40094        1.81817        1.67595
H          4.02678        0.74727        2.93267
H          4.99936        0.18820        0.78929
H          4.02334       -1.15678        1.40367
H          2.97433        0.76237       -0.58595
H          3.54225       -0.74781       -0.93839
H          1.83104        0.69259        3.39668
H          1.33524        0.86815        1.85765
C          3.37451        0.78573        2.05401
C          3.96987       -0.13932        0.99643
N          2.01622        0.38613        2.44807
N          3.13741       -0.17163       -0.20632
