40
2msa1dma1eda_324.log	Energy: -1038017.7703606
S         -0.96091       -2.29276       -0.36158
O         -2.26379       -1.61500       -0.49018
O         -0.60949       -2.76514        0.97873
O          0.13056       -1.40374       -0.95382
C         -0.99335       -3.71333       -1.44182
H         -1.77788       -4.38190       -1.08608
H         -1.20432       -3.37461       -2.45611
H         -0.02078       -4.20288       -1.38895
S          2.79011        0.56726       -0.01043
O          2.97712        1.17916        1.29482
O          1.91086        1.24383       -0.96619
O          2.33654       -0.92522        0.16535
H          1.42825       -1.14666       -0.27580
C          4.38703        0.35524       -0.76483
H          4.82213        1.34748       -0.88840
H          4.99970       -0.25330       -0.09989
H          4.25066       -0.13346       -1.72914
N         -1.21404        1.03327        2.12590
C         -0.12545        0.21409        2.67950
C         -2.52956        0.41662        2.32347
H         -1.19844        1.94151        2.58122
H         -0.11294       -0.75570        2.17501
H          0.83291        0.71046        2.51152
H         -0.25569        0.03460        3.75643
H         -2.57905       -0.50875        1.74297
H         -2.72967        0.18279        3.37906
H         -3.31068        1.09321        1.96171
H         -2.11563        1.30124       -2.33142
H         -2.88946        0.66141       -0.87803
H         -3.68993        2.97637       -1.33477
H         -2.77689        2.93259        0.17538
H         -1.75401        3.95131       -2.37529
H         -1.82309        4.71455       -0.92987
H         -0.49771        0.26342       -0.91290
H         -0.21045        1.90420       -0.90807
C         -2.20999        1.43029       -1.24904
C         -2.68464        2.83672       -0.91224
N         -0.88761        1.18626       -0.64033
N         -1.69931        3.81204       -1.37187
H         -0.96613        1.18024        0.42782
