40
2msa1dma1eda_421.log	Energy: -1038012.5206980
S         -0.93571       -2.09063       -0.25864
O         -1.24667       -1.86056        1.16056
O          0.45143       -2.59958       -0.46392
O         -1.21747       -0.89129       -1.11927
H         -0.24746        0.25023       -1.27095
C         -2.03846       -3.34336       -0.87886
H         -1.86803       -4.25496       -0.30595
H         -3.06010       -2.98796       -0.74306
H         -1.81976       -3.50162       -1.93472
S          0.75317        1.91222       -0.21617
O          0.42231        1.00875       -1.45815
O          2.11008        2.40697       -0.38732
O          0.45989        1.16278        1.01762
H          1.06827       -0.43071        1.43380
C         -0.40937        3.24042       -0.32899
H         -0.25983        3.73062       -1.29120
H         -1.41070        2.79179       -0.23648
H         -0.19476        3.92478        0.49292
N         -2.92909        1.29403        0.19478
C         -4.24196        1.39902       -0.41819
C         -2.98202        1.24095        1.64774
H         -2.46078        0.45994       -0.15172
H         -4.69445        2.36530       -0.16640
H         -4.14439        1.34533       -1.50611
H         -4.94213        0.60925       -0.09280
H         -3.36140        2.19361        2.03757
H         -3.63178        0.43568        2.02929
H         -1.97453        1.08167        2.03810
H          2.39512       -0.38193       -0.77362
H          3.49465       -1.74573       -0.66885
H          3.80483       -1.48995        1.69355
H          3.22884        0.18851        1.66745
H          1.34785       -1.94958        0.83965
H          1.59455       -1.61999        2.47115
H          4.84898       -0.08421       -1.46863
H          4.19067        1.07812       -0.52733
C          3.31238       -0.73699       -0.28619
C          3.09752       -0.80226        1.22700
N          4.47283        0.10108       -0.54658
N          1.70653       -1.24609        1.53180
