37
2msa1ma1eda_327.log	Energy: -1013355.9108614
S         -0.72892       -1.54848       -0.26239
O         -1.83770       -2.04324       -1.08271
O         -1.09914       -0.98600        1.04674
O          0.10234       -0.51255       -1.03240
C          0.39973       -2.89790        0.02211
H         -0.14333       -3.66472        0.57545
H          0.72622       -3.28441       -0.94392
H          1.24284       -2.52344        0.60578
S          3.12157        0.19211        0.25147
O          2.94423       -0.84947        1.25140
O          2.56775        1.51748        0.55782
O          2.60205       -0.29117       -1.15357
H          1.57937       -0.45067       -1.13079
C          4.84526        0.38379       -0.12455
H          5.32795        0.72750        0.79074
H          5.24038       -0.58458       -0.42991
H          4.94742        1.12275       -0.91844
N         -4.26010       -0.28893       -0.21249
H         -5.11371       -0.32159       -0.76031
C         -4.47521       -0.88602        1.10935
H         -4.89433       -1.90095        1.07438
H         -3.51270       -0.93232        1.62336
H         -5.15086       -0.25481        1.69603
H         -3.56363       -0.84237       -0.71159
H         -0.61075        3.81634        0.14673
H         -0.02018        2.92570       -1.27869
H         -2.51968        3.43610       -1.40307
H         -2.15682        1.70953       -1.45787
H         -3.48507        3.09742        0.67727
H         -3.51238        1.48395        0.23892
H          0.66256        1.91646        0.89557
H         -1.00578        1.61050        1.14893
C         -0.68903        2.88312       -0.41682
C         -2.14089        2.59440       -0.81081
N         -0.25511        1.77434        0.46155
N         -2.91759        2.31129        0.38764
H         -0.16558        0.89396       -0.09473
