38
2msa2dma_32.log	Energy: -1003287.4185323
S          0.82427        1.84910       -0.07993
O         -0.26212        1.45485       -1.05064
O          2.14238        1.87638       -0.73690
O          0.76611        1.01746        1.14174
C          0.44087        3.52266        0.40359
H          0.44940        4.14421       -0.49195
H         -0.54447        3.52664        0.87081
H          1.20226        3.85291        1.11050
S         -2.93507       -0.43281       -0.01311
O         -1.97377       -1.03099        0.91806
O         -3.14072       -1.13595       -1.27305
O         -2.59173        1.07633       -0.25126
H         -1.60801        1.22502       -0.58048
C         -4.49712       -0.24492        0.81199
H         -4.33367        0.28956        1.74710
H         -5.16721        0.30597        0.15263
H         -4.88023       -1.24850        0.99871
N          0.70983       -1.64940        0.05545
C          0.56129       -2.87279        0.86324
C          0.24610       -1.78903       -1.34231
H          0.19713       -0.88091        0.51265
H          1.11796       -3.68461        0.39054
H          0.95982       -2.68481        1.86091
H         -0.49693       -3.12541        0.93395
H          0.87335       -2.52765       -1.84606
H         -0.79883       -2.10156       -1.35623
H          0.33504       -0.81701       -1.82918
H          1.74167       -1.33892        0.03728
N          3.31303       -0.75079       -0.03119
C          4.27855       -1.46608       -0.85760
C          3.76001       -0.56294        1.34787
H          3.12162        0.17183       -0.43142
H          4.41456       -2.48209       -0.47085
H          3.90466       -1.53476       -1.88259
H          5.26353       -0.97681       -0.87901
H          3.86372       -1.53810        1.83758
H          4.72881       -0.04628        1.40963
H          3.00914        0.02599        1.88002
