37
2msa1ma1eda_370.log	Energy: -1013354.0098214
S          2.28062       -1.31045       -0.13687
O          1.32997       -2.42413        0.00735
O          2.53504       -0.52341        1.06435
O          1.88916       -0.40393       -1.33931
H          0.88358       -0.06066       -1.35893
C          3.81475       -1.96962       -0.74032
H          4.19758       -2.63899        0.03053
H          3.61891       -2.51056       -1.66537
H          4.50102       -1.13981       -0.90718
S         -1.21999        1.31918       -0.70327
O         -2.63946        1.34317       -1.07980
O         -0.45502        0.32175       -1.54492
O         -0.98540        1.02901        0.74283
H         -1.02917       -0.67037        0.83908
C         -0.51593        2.91404       -1.03151
H         -0.61064        3.10049       -2.10166
H         -1.09063        3.64593       -0.46235
H          0.53059        2.89750       -0.70144
N          2.17171        2.62677        0.80783
H          2.28666        1.62133        0.90858
C          1.43017        3.16486        1.94677
H          1.91895        3.01738        2.92134
H          1.27214        4.23941        1.80597
H          0.44937        2.68290        1.98122
H          3.10124        3.02933        0.75986
H         -2.57878       -3.15469        1.36980
H         -2.20333       -1.87179        2.55114
H         -4.52812       -1.63428        1.49722
H         -3.48556       -0.22710        1.25318
H         -4.52662       -1.91247       -0.77581
H         -3.64300       -0.51215       -0.92656
H         -0.39575       -2.22916        0.77319
H         -1.56258       -1.73758       -0.30704
C         -2.42214       -2.08143        1.50228
C         -3.62637       -1.28001        0.98766
N         -1.26043       -1.68230        0.67788
N         -3.70460       -1.41606       -0.46227
