40
2msa1dma1eda_219.log	Energy: -1038021.5444034
S         -0.74582        2.08049       -0.24053
O          0.52383        1.47004        0.29996
O         -1.74650        2.27008        0.81812
O         -1.22644        1.31065       -1.41648
C         -0.29021        3.69464       -0.84259
H          0.09572        4.27187       -0.00231
H          0.46900        3.57327       -1.61566
H         -1.18546        4.16241       -1.25272
S          3.04259       -0.71531       -0.15296
O          4.26053       -1.16250       -0.78910
O          1.97809       -1.70153        0.08671
O          2.46434        0.48055       -1.00023
H          1.64344        0.89551       -0.55187
C          3.41628        0.04625        1.41300
H          3.77119       -0.73855        2.08164
H          4.19165        0.79412        1.24752
H          2.50505        0.50727        1.79746
N         -1.86560       -0.50617        1.93152
C         -0.72188       -0.48487        2.84149
C         -3.02052       -1.20975        2.47570
H         -2.11221        0.46023        1.70863
H         -0.32768       -1.49959        2.96617
H          0.05634        0.14439        2.40333
H         -0.97960       -0.08904        3.83467
H         -2.77607       -2.26790        2.61924
H         -3.34966       -0.80286        3.44349
H         -3.85525       -1.14365        1.77251
H         -0.83799       -2.72393       -2.03978
H         -1.31623       -3.31728       -0.42893
H         -3.28989       -3.07671       -1.85778
H         -3.37187       -1.92859       -0.51849
H         -3.84662       -1.08658       -2.88490
H         -2.71166       -0.19664       -2.10474
H          0.25904       -1.45366       -0.27864
H         -0.80841       -0.46313       -1.08305
C         -1.38572       -2.47951       -1.12753
C         -2.83989       -2.16378       -1.45620
N         -0.74207       -1.30922       -0.49155
N         -2.92436       -1.12289       -2.46925
H         -1.22611       -1.05227        0.42996
