29
2msa1a1ma_30.log	Energy: -929308.7423124
S          2.60394        0.27176        0.05647
O          4.02350        0.53639       -0.01800
O          2.33566       -1.08557       -0.69302
O          1.68269        1.30110       -0.44918
H          0.24333        1.58061       -1.41492
C          2.12950       -0.07411        1.73528
H          2.33071        0.82869        2.31351
H          1.06306       -0.31728        1.74815
H          2.74057       -0.90330        2.09171
S         -1.33943       -1.28666       -0.07820
O         -2.08255       -0.55689       -1.14091
O         -1.11393       -0.46518        1.13432
O         -0.08448       -1.90657       -0.59014
H          1.35804       -1.35922       -0.66753
C         -2.37626       -2.65634        0.39285
H         -3.31284       -2.25394        0.77937
H         -2.55215       -3.26757       -0.49210
H         -1.85448       -3.22701        1.16104
N         -0.74438        1.77140       -1.65855
H         -0.81542        2.33435       -2.49956
H         -1.19237        2.23064       -0.79412
H         -1.24075        0.85965       -1.74895
N         -1.93367        2.37802        0.72388
H         -1.54116        1.52811        1.13744
C         -3.38741        2.21540        0.59822
H         -3.89119        2.06423        1.56018
H         -3.81879        3.09670        0.11539
H         -3.58118        1.34358       -0.03213
H         -1.70329        3.15820        1.33029
