43
2msa1eda1tma_66.log	Energy: -1062683.7450042
S         -0.43187        1.80655       -1.25827
O         -1.34038        1.72249       -0.06367
O         -0.60559        0.67563       -2.18252
O          0.97545        2.02089       -0.82195
C         -0.91251        3.28728       -2.12545
H         -1.94675        3.16665       -2.44814
H         -0.81440        4.13185       -1.44359
H         -0.25067        3.40156       -2.98407
S         -2.19114       -1.68084        0.36453
O         -3.04323       -2.62817        1.04970
O         -0.79627       -1.54342        0.80076
O         -2.90041       -0.27245        0.42723
H         -2.27272        0.48666        0.19572
C         -2.16725       -2.04653       -1.37548
H         -1.66943       -3.00971       -1.49621
H         -3.20017       -2.10391       -1.71910
H         -1.62095       -1.24589       -1.88040
H          1.77791        0.01337        3.26856
H          2.89368        1.05851        2.34964
H          1.32608        2.34334        3.85004
H          1.20734        2.80397        2.14808
H         -0.91854        2.15081        3.60690
H         -0.85904        1.76623        2.01136
H          1.97972       -0.52274        0.78345
H          0.42273       -0.24668        1.35139
C          1.84596        0.78036        2.49415
C          0.99891        1.99593        2.86543
N          1.34653        0.19708        1.23078
N         -0.40759        1.62262        2.91230
H          1.23585        0.93558        0.50271
N          2.82792       -1.42251       -0.49769
C          3.61663       -0.40241       -1.18642
H          2.97120        0.44060       -1.45060
H          4.41186       -0.04357       -0.52544
H          4.08041       -0.79517       -2.10654
C          3.65860       -2.53791       -0.06101
H          4.44355       -2.17672        0.61004
H          3.04460       -3.26188        0.48145
H          4.13731       -3.05302       -0.91131
C          1.72601       -1.88286       -1.34593
H          1.10058       -2.57828       -0.78083
H          1.10541       -1.03262       -1.64456
H          2.10009       -2.38363       -2.25451
