38
2msa2dma_79.log	Energy: -1003283.9418035
S         -2.42005       -0.70111        0.21005
O         -3.74054       -1.08976       -0.24890
O         -2.27768        0.60289        0.86479
O         -1.41651       -0.70601       -1.01446
C         -1.78085       -1.95541        1.29825
H         -2.43363       -1.95635        2.17217
H         -1.82928       -2.91464        0.78247
H         -0.75004       -1.71832        1.57099
S          1.70566       -1.52977       -0.19370
O          1.54306       -1.66249        1.26105
O          1.97642       -0.15143       -0.65385
O          0.54195       -2.13935       -0.95438
H         -0.56472       -1.38882       -0.97323
C          3.08930       -2.54058       -0.68183
H          3.97071       -2.16601       -0.16075
H          2.87896       -3.57007       -0.39260
H          3.21250       -2.45755       -1.76147
N         -0.27524        1.94078       -1.11501
C         -1.45276        2.83181       -1.17065
C          0.68580        2.14533       -2.21818
H          0.22188        2.10757       -0.17413
H         -1.97658        2.68588       -2.11704
H         -2.11258        2.57539       -0.34221
H         -1.11617        3.86789       -1.09245
H          0.17777        2.00738       -3.17463
H          1.08180        3.16135       -2.15736
H          1.48655        1.41571       -2.10506
H         -0.59850        0.95983       -1.10724
N          0.96016        2.53924        1.28459
C          2.40645        2.64816        1.06944
C          0.62327        1.50074        2.26874
H          0.60640        3.43048        1.62133
H          2.75838        1.71253        0.62749
H          2.61591        3.46574        0.37301
H          2.95568        2.83134        2.00410
H          0.99623        0.53796        1.91094
H          1.07534        1.70390        3.25010
H         -0.46177        1.43160        2.36836
