42
2msa2eda_503.log	Energy: -1072746.9530824
S          2.95058        0.12950        0.00257
O          3.86257        1.27423       -0.13721
O          2.23333       -0.19889       -1.26740
O          1.95977        0.34962        1.11668
H          1.53046        1.89948        0.92244
C          3.87584       -1.31933        0.44960
H          4.60776       -1.49915       -0.33816
H          4.36904       -1.12814        1.40263
H          3.16802       -2.14725        0.52118
S         -0.31288       -2.30679       -0.04207
O          0.95942       -2.99934        0.10106
O         -1.49543       -3.05299       -0.44838
O         -0.15533       -1.11385       -1.07761
H          0.81193       -0.80551       -1.15102
C         -0.67762       -1.45991        1.47883
H         -0.77299       -2.22473        2.25105
H          0.15502       -0.78597        1.68809
H         -1.62449       -0.93112        1.35424
H         -5.40539        1.01284       -0.16352
H         -4.12598        1.98203       -0.90864
H         -4.11472       -0.30637       -1.79548
H         -2.61514        0.01800       -0.92561
H         -4.84692       -1.55758        0.12191
H         -3.28977       -2.02126       -0.11270
H         -4.31134        2.06981        1.61798
H         -3.66724        0.56633        1.59711
C         -4.31344        1.14645       -0.22304
C         -3.69340       -0.12555       -0.79562
N         -3.71718        1.44480        1.08278
N         -3.88508       -1.23375        0.13656
H          0.86063        3.83399       -1.24191
H          1.45410        2.15772       -1.40909
H         -1.06662        2.33270       -1.71771
H         -0.59867        1.27551       -0.39190
H         -1.73145        3.94876       -0.13118
H         -2.09804        2.56309        0.68824
H          2.24469        3.37834        0.62478
H          0.61580        3.33191        1.13334
C          0.82137        2.82500       -0.82206
C         -0.61553        2.32072       -0.71761
N          1.35422        2.88762        0.56796
N         -1.33052        3.11258        0.28100
