37
2msa1ma1eda_65.log	Energy: -1013369.5941885
S          2.05411       -0.91736       -0.61229
O          1.99589        0.30567       -1.45151
O          1.00862       -1.91446       -0.90443
O          2.08761       -0.56620        0.85042
H          0.78829       -1.21806        1.68059
C          3.62992       -1.67201       -0.96620
H          3.65617       -1.90808       -2.03024
H          4.41519       -0.96127       -0.70922
H          3.71718       -2.57937       -0.36846
S         -2.75004        0.01773       -0.31070
O         -4.06403       -0.10467        0.30974
O         -1.63690        0.18315        0.72835
O         -2.59170        1.06390       -1.34402
H         -0.78408        1.95785       -1.36750
C         -2.37477       -1.53887       -1.10788
H         -2.55144       -2.34177       -0.39010
H         -3.05316       -1.64516       -1.95504
H         -1.33158       -1.53226       -1.43123
N         -0.14603       -1.52805        2.05286
H         -0.19415       -1.32523        3.04858
C         -0.39119       -2.95902        1.76460
H         -1.41877       -3.21059        2.02948
H         -0.21957       -3.10852        0.69875
H          0.30271       -3.57457        2.33763
H         -0.85026       -0.90951        1.55084
H          0.78437        3.85737       -0.86158
H         -0.73273        3.80908        0.06073
H          1.14988        4.25359        1.56740
H          0.39604        2.71958        1.96098
H          2.23106        1.55123        1.06086
H          2.89805        2.92220        0.42758
H          0.78237        1.45426       -0.98586
H         -0.50795        1.33990        0.08016
C          0.22489        3.30664       -0.10003
C          1.01472        3.22592        1.21073
N         -0.06203        1.95663       -0.63580
N          2.29946        2.56119        1.16119
