30
2msa1eda_172.log	Energy: -953178.9235287
S         -2.63314       -0.30968        0.04501
O         -1.70339       -0.65370       -1.02514
O         -3.73915       -1.19938        0.33875
O         -3.27139        1.13572       -0.34941
H         -4.22442        1.01442       -0.47047
C         -1.72237        0.13038        1.49287
H         -1.14714       -0.74866        1.78911
H         -1.04164        0.93473        1.19507
H         -2.43429        0.43644        2.25876
S          1.67120       -1.63610       -0.01736
O          1.65293       -3.05555       -0.31444
O          1.06317       -1.18032        1.23128
O          1.01280       -0.81200       -1.22913
H          0.03115       -0.80469       -1.14016
C          3.31989       -1.00093       -0.14829
H          3.91635       -1.55130        0.58079
H          3.68037       -1.19456       -1.15860
H          3.28295        0.06669        0.09458
H          1.42870        3.83732        0.84579
H          2.92474        3.51976       -0.04237
H          1.16502        3.50939       -1.65426
H          1.65528        1.82105       -1.42475
H         -0.76738        3.06387       -0.37125
H         -0.62535        1.73119       -1.29504
H          2.69502        2.12918        1.97887
H          1.44487        1.34776        1.26435
C          1.98392        3.06422        0.28647
C          1.16928        2.67331       -0.93982
N          2.29226        1.88040        1.08232
N         -0.18040        2.25388       -0.54739
