35
2msa1a1tma_52.log	Energy: -978619.4773367
S          0.36099        1.95944        0.15617
O         -0.10335        1.14331        1.32146
O          0.38321        1.16541       -1.10049
O          1.66765        2.60959        0.43123
H          2.98270        1.54166       -0.42996
C         -0.86103        3.23134       -0.06152
H         -1.80350        2.72514       -0.27866
H         -0.92215        3.80470        0.86366
H         -0.55208        3.86438       -0.89348
S         -2.57997       -0.82570       -0.21787
O         -2.11850       -1.63804       -1.33161
O         -2.93505        0.56951       -0.44830
O         -1.54097       -0.91894        0.97379
H         -1.00462       -0.05516        1.08358
C         -3.96717       -1.65330        0.53245
H         -4.75769       -1.68978       -0.21786
H         -3.65906       -2.66072        0.81160
H         -4.28472       -1.08197        1.40403
N          3.05574        0.78171       -1.13005
H          3.86457        0.89229       -1.73273
H          2.15962        0.87741       -1.63800
H          3.00212       -0.20646       -0.62433
N          2.63183       -1.57618        0.08797
C          1.41822       -2.03490       -0.60453
H          0.66178       -1.24901       -0.58998
H          1.65700       -2.26343       -1.64724
H          1.00171       -2.93544       -0.13222
C          3.70190       -2.56715       -0.00667
H          3.92651       -2.76919       -1.05802
H          4.60459       -2.18540        0.47931
H          3.42089       -3.51547        0.47639
C          2.33739       -1.24867        1.48878
H          3.24134       -0.86630        1.97192
H          1.56171       -0.48052        1.53541
H          1.99016       -2.13607        2.03862
