32
2msa1a1dma_167.log	Energy: -953946.4640261
S         -2.31284       -0.36677        0.46996
O         -1.85934       -1.67349       -0.00766
O         -3.74997       -0.11797        0.48240
O         -1.60640        0.75579       -0.38850
H         -2.32082        1.32367       -0.90092
C         -1.62744       -0.09639        2.08152
H         -2.05963       -0.85273        2.73805
H         -0.54577       -0.22128        2.00034
H         -1.90208        0.90635        2.40803
S          1.68440       -1.39458       -0.27979
O          3.00185       -1.98510       -0.36645
O          1.26770       -0.73360        0.95685
O          0.64143       -2.56130       -0.60448
H         -0.27040       -2.27851       -0.35168
C          1.44564       -0.25215       -1.61706
H          2.09917        0.60715       -1.41804
H          1.70567       -0.75950       -2.54600
H          0.40036        0.06221       -1.60548
N         -3.50386        2.05460       -1.59909
H         -3.56627        3.05608       -1.44589
H         -4.30245        1.60931       -1.15007
H         -3.56671        1.88321       -2.59790
N          2.76481        2.39062       -0.19708
C          3.68585        1.88388        0.81363
C          1.45481        2.71294        0.35056
H          3.16341        3.21039       -0.64150
H          3.28739        0.95209        1.22538
H          4.65258        1.66475        0.35341
H          3.84335        2.58685        1.64977
H          0.99305        1.79479        0.72658
H          1.49090        3.44444        1.17670
H          0.81129        3.11165       -0.43952
