40
2msa1dma1eda_523.log	Energy: -1038009.4528669
S         -3.07233       -0.38250        0.53586
O         -3.87494       -1.01255        1.56896
O         -2.68569       -1.16921       -0.63230
O         -1.75326        0.23648        1.18353
H         -0.94174       -0.31808        0.95824
C         -3.87355        1.11019        0.00286
H         -3.21688        1.61877       -0.71064
H         -4.81270        0.80897       -0.46310
H         -4.06669        1.72114        0.88500
S          0.91614       -1.42049       -0.68985
O          0.65998       -0.38791       -1.70393
O          0.44467       -1.04038        0.67994
O          2.36300       -1.81924       -0.61335
H          3.17030       -0.95646        0.35343
C          0.02366       -2.88217       -1.15985
H         -1.03524       -2.61691       -1.17368
H          0.37227       -3.18404       -2.14766
H          0.22526       -3.65612       -0.41930
N          3.81627       -0.41224        1.02729
C          3.00432        0.20144        2.10768
C          4.59791        0.57500        0.24188
H          4.43802       -1.11512        1.42499
H          2.40779        0.99577        1.66163
H          2.33777       -0.55494        2.52015
H          3.66738        0.60928        2.87299
H          3.88325        1.29720       -0.16787
H          5.31696        1.07455        0.89441
H          5.11448        0.05121       -0.56289
H         -0.47011        3.99756       -0.80776
H         -1.35514        3.03674        0.37375
H          1.01199        3.20231        0.98768
H          0.49211        1.53710        0.72236
H          1.57292        1.50247       -1.33799
H          2.02047        3.08111       -1.24097
H         -0.66950        2.37343       -2.38554
H         -0.93217        1.16511       -1.34525
C         -0.60305        2.97778       -0.42424
C          0.70286        2.48472        0.21613
N         -1.12596        2.15167       -1.50803
N          1.82759        2.24877       -0.69037
