44
2msa2tma_33.log	Energy: -1052599.3591341
S          2.20619       -2.10380       -0.09038
O          3.36809       -1.06147       -0.19160
O          1.55517       -2.30339       -1.38087
O          1.32425       -1.79817        1.03756
C          3.16516       -3.54414        0.31740
H          3.87341       -3.72856       -0.48973
H          3.67925       -3.36090        1.26038
H          2.46300       -4.37284        0.41322
S          1.85929        2.14884       -0.15973
O          1.41056        1.49798        1.10356
O          0.75250        2.72653       -0.93923
O          2.72335        1.22960       -0.96681
H          3.05994       -0.11472       -0.49417
C          2.92466        3.49284        0.32772
H          2.33745        4.19135        0.92402
H          3.74890        3.08270        0.91131
H          3.29433        3.97366       -0.57806
N         -4.55027       -0.27584       -0.22928
C         -4.62590       -1.61641       -0.78812
H         -3.95773       -1.69932       -1.65071
H         -4.30784       -2.35024       -0.04114
H         -5.64762       -1.87960       -1.11834
C         -5.38976       -0.15006        0.95047
H         -5.09038       -0.88929        1.70014
H         -5.27074        0.84605        1.38836
H         -6.46206       -0.30309        0.72867
C         -4.88594        0.72850       -1.22630
H         -4.79382        1.72889       -0.79229
H         -4.19348        0.66075       -2.07091
H         -5.91507        0.61433       -1.61345
N         -0.99485        0.30711        0.66463
C         -1.50446       -0.75454        1.56479
H         -0.91499       -1.65489        1.40158
H         -1.38396       -0.42343        2.59719
H         -2.55935       -0.91288        1.33218
C         -1.72294        1.58710        0.86362
H         -1.59945        1.89712        1.90195
H         -1.28063        2.33411        0.20333
H         -2.77540        1.41446        0.63220
C         -1.03904       -0.11314       -0.76296
H         -0.60593        0.68732       -1.36449
H         -0.45293       -1.02420       -0.88361
H         -2.08512       -0.27992       -1.02367
H          0.00621        0.51411        0.89960
