34
2msa1a1eda_215.log	Energy: -988702.7506765
S         -2.66124        0.01191        0.01387
O         -2.15210        0.91768        1.06585
O         -4.08534       -0.29766        0.04223
O         -1.79934       -1.25109        0.00128
H         -0.93908       -1.00698        1.48543
C         -2.31651        0.81091       -1.55045
H         -2.91275        1.72358       -1.58786
H         -1.25241        1.05633       -1.60318
H         -2.62178        0.14007       -2.35553
S          1.69838        1.68985       -0.02453
O          2.98194        2.34852       -0.23129
O          1.72563        0.62975        1.03802
O          1.10794        1.10949       -1.28618
H          0.80876       -0.38408       -1.35050
C          0.51378        2.90369        0.52374
H         -0.44449        2.40747        0.70034
H          0.90021        3.34987        1.44091
H          0.42934        3.66108       -0.25644
N         -0.12715       -0.94351        2.13727
H          0.43616       -1.80005        1.99232
H         -0.44321       -0.81282        3.09247
H          0.47477       -0.14735        1.81135
H          1.06711       -3.39751       -1.55000
H          2.18058       -2.21764       -2.25577
H          3.29165       -2.88498       -0.36134
H          2.59350       -1.32501        0.11312
H          1.37398       -3.90946        0.81922
H          2.33333       -3.02873        1.78816
H         -0.00066       -1.41505       -2.39208
H         -0.35549       -1.49117       -0.79312
C          1.51786       -2.40970       -1.40881
C          2.35213       -2.36358       -0.13500
N          0.44066       -1.39200       -1.47372
N          1.66547       -2.95695        1.02460
