43
2msa1eda1tma_273.log	Energy: -1062666.1477436
S         -2.75960       -1.30148        0.45971
O         -3.69977       -1.84649        1.42178
O         -2.18289       -2.18895       -0.54731
O         -1.57006       -0.58042        1.23991
H         -0.69388       -1.04598        1.06912
C         -3.50578        0.09399       -0.34373
H         -4.39571       -0.27881       -0.85283
H         -3.77022        0.83551        0.41117
H         -2.78792        0.51941       -1.04814
S          1.37939       -1.58070       -0.48542
O          0.94561       -0.39382       -1.25367
O          0.75452       -1.66006        0.86325
O          2.87754       -1.62142       -0.36880
H          3.26765       -0.19397        0.13223
C          0.89011       -3.03237       -1.38010
H         -0.20100       -3.01843       -1.42112
H          1.33363       -2.98421       -2.37445
H          1.24819       -3.90321       -0.83106
H         -1.25968        4.58906       -0.73343
H         -1.49259        4.26287        0.99007
H          0.29947        2.88456        0.11209
H         -1.05940        1.85263        0.60971
H         -0.47240        2.57875       -2.16997
H         -0.40596        1.08753       -1.48429
H         -3.61173        4.29879       -0.19916
H         -3.12326        3.00816       -1.09164
C         -1.61855        3.83316       -0.01012
C         -0.73938        2.59356       -0.13059
N         -3.01972        3.47608       -0.19583
N         -0.87968        1.98834       -1.45121
N          3.45430        0.80114        0.49632
C          2.44000        1.06276        1.55055
H          1.45015        1.02174        1.09732
H          2.51081        0.28338        2.30898
H          2.62182        2.04784        1.98703
C          4.83064        0.81486        1.03844
H          4.89834        0.07972        1.84085
H          5.52783        0.54719        0.24395
H          5.06358        1.81087        1.42229
C          3.28768        1.72015       -0.65651
H          4.03840        1.47733       -1.40919
H          2.29315        1.55658       -1.07482
H          3.41195        2.75140       -0.31716
