38
2msa1ma1tma_91.log	Energy: -1003278.5450526
S         -2.23675       -1.61219        0.03826
O         -2.94091       -2.70261        0.69549
O         -1.68063       -0.59223        1.01180
O         -3.02795       -0.88780       -1.00562
H         -3.06392        0.66992       -0.77280
C         -0.82070       -2.28802       -0.81154
H         -0.20010       -2.80329       -0.07706
H         -1.19291       -2.99524       -1.55333
H         -0.27602       -1.47209       -1.29094
S          0.55274        1.52480       -0.20411
O         -0.49342        2.54751       -0.00406
O          0.50405        0.81843       -1.47851
O          0.53153        0.51579        0.99496
H         -0.38453        0.00131        1.01628
C          2.13965        2.26483        0.03110
H          2.26454        2.99690       -0.76768
H          2.14904        2.74896        1.00745
H          2.88342        1.45783       -0.03587
N         -3.11253        1.69728       -0.48083
H         -2.13739        2.04350       -0.37993
C         -3.82945        1.80073        0.81268
H         -3.86528        2.84157        1.13437
H         -4.83641        1.40108        0.69430
H         -3.28141        1.19474        1.53352
H         -3.57190        2.22763       -1.21744
N          3.86856       -0.50826        0.07278
C          2.93141       -1.47705       -0.47617
H          1.96386       -1.36269        0.01731
H          2.78840       -1.29304       -1.54446
H          3.27969       -2.51817       -0.33868
C          5.16325       -0.60017       -0.57932
H          5.04634       -0.43875       -1.65493
H          5.83492        0.17001       -0.18761
H          5.64370       -1.58548       -0.42818
C          3.98600       -0.65658        1.51462
H          4.66375        0.10608        1.91127
H          3.00425       -0.52164        1.97749
H          4.37759       -1.64923        1.80590
