38
2msa2dma_14.log	Energy: -1003301.7047329
S          2.25378        0.10883       -0.48640
O          1.39248        1.16996       -1.08498
O          1.96351       -1.24367       -1.04350
O          2.23627        0.14103        0.99113
H         -0.52326       -1.72095        0.61934
C          3.91747        0.48709       -1.00938
H          3.94410        0.47959       -2.09908
H          4.17852        1.47260       -0.62327
H          4.58340       -0.27402       -0.60233
S         -2.46938       -0.02871       -0.38484
O         -3.67227       -0.85617       -0.37567
O         -1.44014       -0.43938        0.63764
O         -2.69638        1.44196       -0.26751
H         -1.30498        2.09595        0.36533
C         -1.66375       -0.25986       -1.96721
H         -1.49744       -1.32746       -2.12027
H         -2.33044        0.12543       -2.73951
H         -0.70983        0.27242       -1.96089
N          0.19351       -2.50216        0.59668
C         -0.44223       -3.73192        0.09239
C          0.80598       -2.62719        1.93484
H          0.91594       -2.14850       -0.07467
H         -1.23578       -4.03515        0.77716
H         -0.87415       -3.53161       -0.88836
H          0.30379       -4.52441        0.00997
H          0.02714       -2.84470        2.66782
H          1.54358       -3.43211        1.92323
H          1.29866       -1.68061        2.16161
N         -0.34091        2.39902        0.66231
C         -0.13175        2.06765        2.08684
C         -0.13657        3.82005        0.32793
H          0.31248        1.83262        0.07496
H         -0.78775        2.69103        2.69746
H         -0.38093        1.01606        2.21734
H          0.91449        2.23615        2.34375
H         -0.83542        4.43284        0.89962
H          0.88998        4.10293        0.56715
H         -0.31345        3.95724       -0.73877
