44
2msa2tma_15.log	Energy: -1052602.8890380
S         -0.40207       -2.26669       -0.42021
O         -1.88103       -2.11432       -0.25847
O          0.21828       -3.09666        0.62204
O          0.24999       -0.93010       -0.56769
C         -0.16597       -3.08982       -1.98387
H         -0.66447       -4.05796       -1.93163
H         -0.60530       -2.46960       -2.76542
H          0.90477       -3.21776       -2.14495
S         -2.36401        1.40273       -0.19634
O         -1.49254        2.12978       -1.10482
O         -1.84827        1.11086        1.14432
O         -2.92034        0.09605       -0.86015
H         -2.44556       -0.77875       -0.57661
C         -3.88573        2.31053       -0.02979
H         -3.63766        3.27915        0.40514
H         -4.31979        2.43535       -1.02168
H         -4.55332        1.74876        0.62262
N          2.99621        1.24991       -0.78593
C          4.14361        2.14031       -0.75366
H          3.89738        3.04567       -0.18925
H          4.98815        1.64733       -0.26096
H          4.46813        2.44779       -1.76608
C          3.31164        0.01661       -1.49258
H          4.16251       -0.48098       -1.01381
H          2.44551       -0.64926       -1.45640
H          3.57591        0.19951       -2.55126
C          1.83991        1.90329       -1.39045
H          0.97359        1.23975       -1.36488
H          1.58695        2.81071       -0.83336
H          2.03168        2.19155       -2.44063
N          1.02540       -0.08292        1.89373
C          2.32933       -0.79212        1.91471
H          2.14908       -1.83745        1.65992
H          2.97309       -0.31939        1.17197
H          2.76338       -0.70523        2.91383
C          1.18879        1.37804        2.09145
H          1.90060        1.73188        1.34434
H          0.21651        1.85006        1.95288
H          1.56915        1.55447        3.10084
C          0.06456       -0.67898        2.85904
H         -0.89519       -0.17910        2.73786
H         -0.03789       -1.73996        2.62673
H          0.45658       -0.53916        3.86940
H          0.63652       -0.24484        0.93087
