37
2msa1ma1eda_373.log	Energy: -1013355.9285258
S          2.49512       -0.20377       -0.37880
O          3.91518        0.05854       -0.31835
O          1.73655       -0.14042        0.88913
O          2.29060       -1.64828       -0.98267
H          1.30660       -1.97231       -0.88457
C          1.70264        0.88233       -1.53003
H          1.73700        1.89419       -1.10396
H          2.24160        0.81364       -2.47520
H          0.65621        0.58079       -1.63449
S         -2.37318        0.57363       -0.29735
O         -1.58188        0.05792       -1.44490
O         -1.71799        1.66731        0.43835
O         -2.77587       -0.55189        0.61744
H         -1.47493       -0.93761        1.47430
C         -3.89804        1.20558       -0.96960
H         -3.64831        2.01082       -1.66087
H         -4.40638        0.39413       -1.49034
H         -4.50389        1.57852       -0.14389
N          0.79171        3.46650        0.19451
H          0.60229        4.44141       -0.01035
C          1.41010        3.32814        1.51166
H          0.79924        3.71070        2.34371
H          1.61322        2.26984        1.69691
H          2.37040        3.85259        1.52438
H         -0.09931        2.97268        0.17605
H         -1.88780       -3.03662        0.27526
H         -0.55396       -4.20000        0.18612
H         -0.70621       -3.24250        2.40802
H          0.84443       -2.80185        1.65359
H         -0.45954       -0.98783        2.83575
H          0.21448       -0.65187        1.36796
H         -0.30629       -2.99801       -1.71056
H         -0.74496       -1.56657       -1.07880
C         -0.79622       -3.13684        0.26813
C         -0.23881       -2.66565        1.60688
N         -0.20964       -2.42480       -0.87678
N         -0.51858       -1.22294        1.84730
