40
2msa1dma1eda_517.log	Energy: -1038009.3909443
S         -3.40644        0.05894        0.02566
O         -4.81422       -0.26454        0.13898
O         -2.68507       -0.26655       -1.20246
O         -2.67956       -0.63938        1.25598
H         -1.69529       -0.75062        1.10672
C         -3.17331        1.78894        0.36299
H         -3.76353        2.33677       -0.37351
H         -3.53808        1.98944        1.37037
H         -2.10844        2.01197        0.23756
S          0.64436       -1.71504       -0.05524
O         -0.10045       -0.98431        1.00966
O          1.67968       -2.62413        0.46344
O          1.23439       -0.73315       -1.03625
H          2.72067       -0.44826       -0.51002
C         -0.54471       -2.67051       -0.96584
H         -0.98360       -3.39175       -0.27515
H         -1.30686       -1.98968       -1.35058
H         -0.01718       -3.18124       -1.77156
N          3.76746       -0.40950       -0.30173
C          4.01204       -0.64443        1.14417
C          4.30802        0.87583       -0.79616
H          4.15068       -1.18950       -0.83552
H          3.55807        0.18807        1.68028
H          3.52278       -1.57893        1.41835
H          5.08812       -0.68635        1.32358
H          3.81612        1.66579       -0.22703
H          5.38898        0.90429       -0.64659
H          4.07005        0.97787       -1.85544
H          1.84287        2.54614       -1.36044
H          0.67142        3.86103       -1.21362
H          2.02917        3.73108        0.79630
H          0.32363        3.38963        1.14561
H          1.76546        1.82182        2.23268
H          0.94352        1.00913        1.10192
H         -0.63870        2.14123       -1.95620
H          0.10052        0.99930       -1.06681
C          0.92765        2.86596       -0.83396
C          1.22669        2.99594        0.65496
N         -0.20188        1.97204       -1.05748
N          1.66818        1.71840        1.22645
