32
2msa1a1dma_41.log	Energy: -953967.4442781
S          2.12885       -0.68648       -0.14868
O          1.70943       -0.80033       -1.53859
O          1.27025       -1.57688        0.78917
O          2.19755        0.68564        0.38932
C          3.73087       -1.42189        0.06605
H          4.43639       -0.82787       -0.51530
H          3.98259       -1.39781        1.12596
H          3.68466       -2.44543       -0.30477
S         -2.06705       -0.85980       -0.07312
O         -2.22446       -0.54285       -1.49303
O         -1.76859        0.34394        0.76361
O         -1.07805       -1.95839        0.20501
H          0.24433       -1.70134        0.49335
C         -3.61067       -1.51178        0.53136
H         -4.38044       -0.75857        0.36239
H         -3.83161       -2.42184       -0.02651
H         -3.50073       -1.72564        1.59424
N          0.26377        1.70823        2.56745
H          0.25770        1.89390        3.56423
H          1.14335        1.25302        2.33754
H         -0.47474        1.03592        2.36695
N         -0.11930        2.14456       -0.46894
C         -0.37771        3.53663       -0.04479
C         -0.16532        1.92219       -1.93376
H          0.79170        1.82370       -0.10052
H         -1.38325        3.81904       -0.36047
H         -0.28884        3.56437        1.04205
H          0.35577        4.19691       -0.51119
H         -1.17168        2.14125       -2.29044
H          0.56498        2.57584       -2.41375
H          0.07031        0.87771       -2.13637
H         -0.81237        1.50772       -0.00534
