34
2msa1a1eda_293.log	Energy: -988690.7758317
S          1.98129       -1.45432       -0.20902
O          3.12076       -2.02592       -0.91832
O          0.88565       -0.91273       -1.05670
O          2.37740       -0.40270        0.80949
H          1.38403        0.74907        0.67796
C          1.24557       -2.75902        0.76899
H          0.94988       -3.55885        0.08813
H          1.99486       -3.12194        1.47299
H          0.37971       -2.35157        1.29361
S         -2.29507       -0.39804        0.24075
O         -1.59486       -0.78968        1.44997
O         -1.94935        0.91664       -0.33724
O         -3.84774       -0.40769        0.51104
H         -4.30492        0.43025        0.10714
C         -2.08712       -1.64379       -1.00074
H         -1.01698       -1.65647       -1.23746
H         -2.42447       -2.59119       -0.57953
H         -2.68454       -1.36495       -1.86902
N         -4.86162        1.77228       -0.52428
H         -4.00952        2.19377       -0.88759
H         -5.25866        2.40276        0.16511
H         -5.52678        1.67795       -1.28497
H          2.61726        3.25219        1.28691
H          2.96793        4.02574       -0.25829
H          0.69241        3.45975       -0.44102
H          1.51584        2.14987       -1.32851
H          0.49623        1.98775        1.43359
H         -0.13691        1.24857        0.09728
H          4.68052        2.42791        0.19025
H          3.59969        1.18130        0.21442
C          2.73091        3.06077        0.20199
C          1.38081        2.61568       -0.35030
N          3.77718        2.11834       -0.14621
N          0.73430        1.59947        0.52272
