35
2msa1ma1dma_16.log	Energy: -978638.5118011
S          2.57198       -0.06002       -0.45778
O          3.85921        0.58647       -0.22866
O          1.57059        0.22086        0.65634
O          2.60949       -1.52092       -0.72107
H          1.12891       -2.39640       -0.04026
C          1.83984        0.67948       -1.91249
H          1.85827        1.76401       -1.79228
H          2.45103        0.39315       -2.76913
H          0.81571        0.31434       -2.01627
S         -2.39055       -0.36756       -0.38070
O         -2.13258       -1.81052       -0.12793
O         -1.45546        0.23708       -1.35243
O         -2.45776        0.42636        0.88604
H         -1.18469        1.51661        0.93519
C         -4.02486       -0.29399       -1.08978
H         -4.01747       -0.86792       -2.01657
H         -4.72751       -0.72182       -0.37464
H         -4.26213        0.75179       -1.28586
N          0.42029       -2.29017        0.70762
H          0.67127       -1.34817        1.05766
C          0.52049       -3.33461        1.74253
H         -0.21984       -3.14097        2.51866
H          0.32602       -4.30741        1.29160
H          1.52290       -3.32180        2.17047
H         -0.54260       -2.21155        0.30533
N         -0.30738        2.09349        0.89995
C         -0.04590        2.70919        2.21421
C         -0.40436        3.05351       -0.21710
H          0.45970        1.39616        0.70254
H         -0.84639        3.41016        2.45722
H         -0.00499        1.92222        2.96698
H          0.91234        3.23023        2.18418
H         -1.19091        3.77977       -0.00329
H          0.55107        3.56889       -0.33411
H         -0.65318        2.49061       -1.11727
