40
2msa1dma1eda_494.log	Energy: -1038008.9569588
S          1.68368       -1.22848       -1.04961
O          0.96893       -2.42741       -0.57904
O          2.60054       -0.64595       -0.01826
O          0.78430       -0.17753       -1.60323
C          2.74687       -1.74216       -2.38990
H          3.43956       -2.49160       -2.00636
H          2.11972       -2.16570       -3.17493
H          3.28717       -0.86907       -2.75605
S         -2.84839       -0.56473        0.09752
O         -3.94028       -1.30382        0.70577
O         -1.88396        0.12071        0.94505
O         -3.52046        0.59137       -0.83344
H         -4.48000        0.46696       -0.81066
C         -1.99725       -1.53950       -1.10323
H         -1.41294       -2.29010       -0.56565
H         -2.74222       -1.99266       -1.75697
H         -1.29567       -0.89259       -1.63657
N          0.51048        3.27256       -0.45959
C         -0.72212        2.84102       -1.12574
C          1.67814        3.17198       -1.33918
H          0.40642        4.22918       -0.13668
H         -0.59991        1.79816       -1.43156
H         -1.56116        2.90051       -0.42834
H         -0.95295        3.43837       -2.01987
H          1.82524        2.11923       -1.59885
H          1.55719        3.74554       -2.27004
H          2.56668        3.53251       -0.81446
H          1.59897        1.72624        3.01729
H         -0.17107        1.48628        2.99675
H          0.81262       -0.25949        4.33742
H          0.21192       -0.98988        2.84508
H          2.54851       -1.60314        3.60874
H          2.51038       -1.05403        2.06770
H          0.74163        1.99300        0.74634
H          1.62986        0.54410        0.81390
C          0.79054        1.07099        2.68552
C          0.98864       -0.32628        3.25916
N          0.79940        1.04132        1.20376
N          2.35272       -0.78847        3.03948
H         -0.02430        0.52668        0.86692
