43
2msa1eda1tma_127.log	Energy: -1062680.4403888
S          3.23800       -0.27547        0.38641
O          3.01126       -0.00460       -1.03054
O          2.90035       -1.61428        0.86742
O          2.54445        0.82063        1.27194
H          1.54153        0.92685        1.01701
C          4.93508        0.06043        0.78924
H          5.54050       -0.64656        0.22135
H          5.16222        1.08559        0.49883
H          5.07138       -0.08643        1.86021
S         -0.45491        1.98684       -0.38011
O         -1.19784        3.03076        0.32303
O         -1.20138        1.25356       -1.41969
O          0.14837        0.96996        0.59622
H         -0.62172       -0.55029        0.31031
C          0.96231        2.73725       -1.16111
H          0.59071        3.42156       -1.92434
H          1.52185        3.28392       -0.40095
H          1.57584        1.94794       -1.59843
H         -1.76103       -2.66394       -1.43185
H         -1.21624       -1.02928       -1.91823
H          0.50318       -2.87669       -2.39832
H          1.10254       -1.57239       -1.38114
H          0.71883       -4.30085       -0.60855
H          1.58442       -3.09937        0.12575
H         -2.20103       -1.15358        0.35340
H         -0.82808       -2.15797        0.73959
C         -1.02135       -1.87588       -1.25860
C          0.40179       -2.41287       -1.41074
N         -1.18918       -1.40912        0.13695
N          0.69854       -3.33390       -0.31267
N         -3.79569       -0.51036        0.57650
C         -4.20915       -0.00255       -0.73354
H         -3.45461        0.69579       -1.10431
H         -4.29221       -0.83567       -1.43878
H         -5.18519        0.50696       -0.67968
C         -4.73511       -1.50650        1.07921
H         -4.81531       -2.33272        0.36641
H         -4.37939       -1.90411        2.03447
H         -5.74127       -1.08171        1.23300
C         -3.63547        0.59033        1.53020
H         -3.25250        0.20104        2.47833
H         -2.92541        1.32544        1.14312
H         -4.59449        1.09863        1.72162
