38
2msa2dma_101.log	Energy: -1003283.1371042
S          0.82417        2.33012       -0.02712
O          1.13127        3.69793        0.32713
O          0.21934        1.62748        1.24438
O          1.91595        1.49376       -0.56009
H          2.50427       -0.07557       -0.22729
C         -0.50312        2.28262       -1.20545
H         -1.34196        2.83421       -0.78050
H         -0.14275        2.76386       -2.11537
H         -0.75894        1.23453       -1.38302
S         -0.35502       -1.73119       -0.10268
O          0.78342       -2.57895       -0.55947
O         -0.96428       -0.92045       -1.17050
O          0.08142       -0.89682        1.07349
H          0.13346        0.61460        1.13151
C         -1.60139       -2.83343        0.52206
H         -1.85812       -3.52826       -0.27829
H         -1.18858       -3.36437        1.37958
H         -2.46934       -2.22501        0.79336
N         -3.71371       -0.24456        0.03390
C         -3.34902        0.86332        0.89886
C         -5.02436       -0.08290       -0.56857
H         -3.00333       -0.36025       -0.68382
H         -4.01330        0.88586        1.77014
H         -2.32615        0.73254        1.26016
H         -3.41975        1.85004        0.40444
H         -5.79484       -0.11902        0.20985
H         -5.14510        0.87205       -1.11175
H         -5.21523       -0.90205       -1.26728
N          2.93813       -1.01111       -0.08970
C          3.30777       -1.15301        1.33494
C          4.05594       -1.16400       -1.04144
H          2.17299       -1.69975       -0.31167
H          4.01750       -0.36959        1.60471
H          2.39458       -1.05963        1.92272
H          3.75482       -2.13577        1.49241
H          4.80709       -0.39750       -0.84514
H          4.49547       -2.15587       -0.92619
H          3.66796       -1.04740       -2.05320
