32
2msa2ma_73.log	Energy: -953966.0233582
S         -0.89068        1.53097        0.13716
O         -0.01696        1.22680        1.30898
O         -2.31606        1.26449        0.40856
O         -0.39385        0.83735       -1.08658
C         -0.72895        3.28029       -0.16605
H          0.32211        3.50029       -0.35499
H         -1.34044        3.53595       -1.03161
H         -1.07746        3.80654        0.72270
S          2.79005       -0.61525       -0.04326
O          1.70584       -1.58768       -0.20130
O          4.12815       -1.09706        0.22540
O          2.42592        0.40237        1.10848
H          1.45043        0.67355        1.13642
C          2.81093        0.40766       -1.50000
H          3.08884       -0.23403       -2.33728
H          1.80826        0.81841       -1.63773
H          3.55803        1.18774       -1.35300
N         -1.03584       -1.82410       -0.35214
H         -0.55047       -2.60191       -0.79328
H         -0.53834       -0.95883       -0.63896
C         -1.03366       -1.96061        1.12533
H         -1.50460       -1.07310        1.54774
H         -1.59411       -2.85526        1.39974
H         -0.00318       -2.02822        1.46890
H         -2.03579       -1.71167       -0.69947
N         -3.63972       -1.04888       -0.89724
H         -3.37250       -0.08860       -0.66390
C         -4.62855       -1.53306        0.07220
H         -5.57314       -0.97674        0.04952
H         -4.84328       -2.58952       -0.11146
H         -4.20915       -1.43972        1.07703
H         -4.02923       -1.04142       -1.83432
