40
2msa1dma1eda_60.log	Energy: -1038034.3875832
S          2.66764        1.18621        0.04157
O          1.86909        2.17337       -0.73883
O          3.54750        0.32775       -0.76527
O          1.76410        0.39062        0.93930
C          3.71200        2.14886        1.12103
H          4.30435        1.46337        1.72729
H          4.35846        2.76498        0.49557
H          3.07849        2.77295        1.75134
S         -1.94051       -1.60844        0.25094
O         -1.60489       -0.94829       -1.05190
O         -1.97140       -0.63665        1.36287
O         -1.08044       -2.79536        0.50333
C         -3.59290       -2.25478        0.06665
H         -4.26567       -1.42197       -0.14033
H         -3.59350       -2.96614       -0.75909
H         -3.86662       -2.74693        1.00009
N          1.49910       -2.12177       -0.12190
C          2.64840       -2.87901        0.41002
C          1.47994       -2.01299       -1.59982
H          0.58710       -2.52103        0.19367
H          3.56481       -2.36162        0.12175
H          2.57023       -2.91766        1.49667
H          2.63774       -3.89084        0.00125
H          2.34714       -1.43154       -1.91527
H          1.50108       -3.01623       -2.02935
H          0.55227       -1.51467       -1.88436
H          1.54175       -1.15762        0.28748
H         -1.44150        3.43075        0.35299
H         -1.64542        3.01526       -1.35215
H         -3.40920        1.39327       -0.80598
H         -3.19223        1.66170        0.91951
H         -5.01321        2.97373       -0.33393
H         -4.03310        3.89063        0.59715
H         -1.01716        0.69211       -0.73549
H          0.22497        1.82411       -0.43563
C         -1.72617        2.62942       -0.33447
C         -3.14923        2.15339       -0.06233
N         -0.74648        1.53017       -0.17816
N         -4.05681        3.28516       -0.21635
H         -0.71943        1.16321        0.77908
