43
2msa1eda1tma_251.log	Energy: -1062667.5561510
S          0.70171       -1.79877       -0.49936
O         -0.16122       -2.82197       -1.07479
O          0.39545       -1.38996        0.87828
O          0.75638       -0.52289       -1.42427
H         -0.09637        0.05254       -1.33667
C          2.39200       -2.31878       -0.61117
H          2.47093       -3.22982       -0.01631
H          2.60106       -2.53157       -1.65984
H          3.05231       -1.53335       -0.22378
S         -1.38675        2.15445       -0.38081
O         -1.30849        3.33376       -1.23008
O         -1.33796        0.84518       -1.12272
O         -2.56669        2.14466        0.54651
H         -3.40178        0.91775        0.84615
C          0.04545        2.14252        0.68784
H          0.93740        2.20618        0.06323
H         -0.01751        3.01121        1.34366
H          0.04510        1.21194        1.25798
H         -5.14920       -1.47892        0.32323
H         -4.46371       -0.34101       -0.87049
H         -3.17281       -2.57421       -0.70460
H         -2.22365       -1.11111       -0.47242
H         -2.88669       -3.06316        1.54849
H         -1.57836       -2.08045        1.39823
H         -4.89943        0.49677        1.53131
H         -3.53999       -0.44788        1.87591
C         -4.27414       -0.87755        0.06026
C         -3.00408       -1.73028       -0.02958
N         -4.04218        0.10287        1.15321
N         -2.59251       -2.12130        1.31941
N          4.14230        0.31409        0.44577
C          5.55516        0.49394        0.73106
H          5.86258       -0.18554        1.53148
H          6.14559        0.26178       -0.16023
H          5.79387        1.52843        1.04372
C          3.71697        1.15399       -0.66323
H          4.32131        0.93298       -1.54805
H          2.67341        0.94070       -0.90992
H          3.81766        2.23265       -0.43746
C          3.32900        0.55235        1.62743
H          2.28200        0.32321        1.41156
H          3.65482       -0.10598        2.43819
H          3.39698        1.59900        1.98158
