43
2msa1eda1tma_12.log	Energy: -1062691.6799681
S         -2.83783        1.06051       -0.01439
O         -3.43412        0.25529        1.06552
O         -2.17570        0.20780       -1.05685
O         -1.91776        2.13130        0.45168
C         -4.17493        1.89548       -0.85075
H         -4.87392        1.14301       -1.21631
H         -4.66201        2.55322       -0.13047
H         -3.75883        2.47039       -1.67805
S          2.65235       -1.24426        0.04806
O          2.20262       -2.40372        0.83654
O          3.31673       -0.17026        0.80946
O          1.53388       -0.69805       -0.80644
C          3.85783       -1.86337       -1.12060
H          4.69498       -2.27182       -0.55365
H          3.38930       -2.64243       -1.72269
H          4.18873       -1.03785       -1.75147
H          0.81642        3.16571        1.35362
H          1.58388        1.58227        1.64800
H          3.29935        3.37809        1.33252
H          3.40447        2.08656        0.13321
H          2.30913        4.77512       -0.32969
H          3.43125        3.96415       -1.20133
H         -0.30086        1.84090       -0.08676
H          0.93736        2.45788       -1.04673
C          1.44543        2.38271        0.92073
C          2.79414        2.92915        0.46796
N          0.72667        1.83721       -0.25717
N          2.58923        3.85406       -0.64989
H          1.04829        0.86161       -0.49252
N         -1.61692       -2.21486       -0.01042
C         -2.97963       -2.78650        0.10358
H         -3.58151       -2.10849        0.70980
H         -3.41230       -2.86855       -0.89435
H         -2.91313       -3.77407        0.56573
C         -0.73890       -3.01274       -0.90185
H         -1.23730       -3.12922       -1.86543
H          0.20151       -2.47358       -1.02060
H         -0.56201       -3.98828       -0.44435
C         -1.00607       -2.00923        1.33084
H          0.00432       -1.62556        1.19875
H         -1.63645       -1.31103        1.88285
H         -0.94975       -2.97331        1.84077
H         -1.73866       -1.26156       -0.44595
