35
2msa1ma1dma_148.log	Energy: -978621.6607057
S         -1.84581       -0.37551       -0.33233
O         -1.13964        0.90600       -0.46000
O         -2.80459       -0.70147       -1.38858
O         -2.58951       -0.39521        1.04888
H         -3.64010       -0.57892        0.90152
C         -0.64885       -1.66586       -0.16803
H         -0.05297       -1.69965       -1.08212
H          0.01551       -1.42856        0.66651
H         -1.18395       -2.60273       -0.01339
S          2.95906       -0.86152       -0.00386
O          2.44893       -1.83847       -0.97462
O          2.06470       -0.63135        1.16171
O          3.34241        0.45391       -0.62927
H          2.16015        1.45538       -0.32299
C          4.48892       -1.51848        0.64474
H          4.26977       -2.47522        1.11964
H          5.18121       -1.65361       -0.18659
H          4.89013       -0.81085        1.37051
N         -5.05431       -0.76353        0.52207
H         -4.95665       -1.24594       -0.36947
C         -5.68354        0.55053        0.31756
H         -6.68117        0.47800       -0.12662
H         -5.75559        1.06578        1.27723
H         -5.04433        1.13935       -0.34309
H         -5.60988       -1.34778        1.13920
N          1.33827        2.08139       -0.05304
C          1.21685        3.19318       -1.01351
C          1.51036        2.49209        1.35510
H          0.49123        1.49179       -0.12621
H          2.12960        3.79076       -0.98772
H          1.08011        2.77570       -2.01093
H          0.35535        3.81068       -0.75324
H          2.40653        3.10964        1.43725
H          0.63399        3.05510        1.68179
H          1.63058        1.58261        1.94443
