44
2msa2tma_46.log	Energy: -1052601.7830840
S         -0.71292       -1.75941       -0.54189
O         -1.93216       -2.40314       -0.99735
O         -0.36620       -0.45595       -1.11363
O          0.46851       -2.77096       -0.77980
H          1.34874       -2.35702       -0.48769
C         -0.76183       -1.57019        1.22619
H         -1.57605       -0.86996        1.42886
H         -0.95654       -2.54735        1.66804
H          0.19605       -1.16213        1.55936
S          2.89405       -0.29107        0.36760
O          2.62812       -1.74080        0.15240
O          2.11300        0.28389        1.48906
O          2.74741        0.52064       -0.86944
H          1.12361        1.29637       -0.60169
C          4.61569       -0.21558        0.82576
H          4.75093       -0.80233        1.73430
H          5.20385       -0.62948        0.00680
H          4.87566        0.82893        0.99960
N         -3.51914        0.44359        0.55471
C         -4.23682       -0.76600        0.93759
H         -3.86144       -1.61276        0.35736
H         -4.07480       -0.97043        2.00105
H         -5.32570       -0.67347        0.76814
C         -3.96751        1.58188        1.33727
H         -3.80074        1.39265        2.40216
H         -3.40176        2.47614        1.05510
H         -5.04233        1.79941        1.18921
C         -3.66846        0.69610       -0.87112
H         -3.08825        1.58214       -1.15237
H         -3.29059       -0.15840       -1.43694
H         -4.72267        0.87624       -1.15397
N          0.59219        2.18815       -0.48716
C         -0.39971        2.02976        0.60751
H         -1.14846        1.29589        0.30996
H          0.13327        1.67436        1.48937
H         -0.86374        3.00167        0.79434
C          1.61605        3.20368       -0.13858
H          2.08328        2.89979        0.79810
H          2.36833        3.22532       -0.92579
H          1.13175        4.17725       -0.03478
C         -0.05394        2.47026       -1.79173
H          0.72030        2.52472       -2.55736
H         -0.73269        1.64913       -2.01771
H         -0.58975        3.42005       -1.72500
