26
2msa2a_27.log	Energy: -904649.6952290
S          2.30784       -0.00596       -0.24927
O          3.76146        0.01615       -0.31224
O          1.75125        0.42349        1.08761
O          1.68049       -1.31620       -0.63218
H          0.89185       -1.92229        0.61053
C          1.68175        1.17141       -1.43743
H          2.11994        2.14483       -1.21138
H          2.00445        0.84209       -2.42573
H          0.59062        1.20320       -1.37991
S         -2.30788        0.00639       -0.24919
O         -3.76152       -0.01624       -0.31195
O         -1.75089       -0.42450        1.08698
O         -1.68114        1.31735       -0.63061
H         -0.89182        1.92157        0.61274
C         -1.68161       -1.16930       -1.43893
H         -2.12028       -2.14292       -1.21468
H         -2.00368       -0.83822       -2.42685
H         -0.59052       -1.20154       -1.38093
N          0.32158       -2.03885        1.50458
H          0.11624       -3.00963        1.71972
H         -0.56063       -1.46663        1.36932
H          0.87888       -1.61048        2.24189
N         -0.32138        2.03638        1.50687
H         -0.11826        3.00689        1.72531
H          0.56204        1.46624        1.36983
H         -0.87761        1.60414        2.24275
