28
2msa1dma_52.log	Energy: -918452.1796978
S          0.60210       -1.41457       -0.03808
O          0.53655       -0.32800       -1.03370
O         -0.39202       -2.46705       -0.17433
O          0.52942       -0.76925        1.41157
H         -0.30044       -0.21926        1.45712
C          2.24183       -2.06458        0.00488
H          2.38740       -2.58485       -0.94282
H          2.92609       -1.21072        0.10007
H          2.30352       -2.75992        0.84190
S         -2.63050        0.78880        0.03266
O         -3.63374        1.82229        0.08699
O         -1.70239        0.64552        1.16478
O         -1.78078        1.01943       -1.28974
H         -0.91014        0.54278       -1.24656
C         -3.39669       -0.79162       -0.24205
H         -4.01955       -0.99719        0.62950
H         -4.00546       -0.71645       -1.14294
H         -2.61518       -1.54754       -0.34637
N          3.33851        0.97903       -0.14541
C          4.46431        1.51022       -0.89890
C          3.14750        1.65183        1.13258
H          2.48913        1.06155       -0.69680
H          5.39398        1.30996       -0.35550
H          4.52903        1.01123       -1.86962
H          4.40250        2.59836       -1.06958
H          4.01243        1.45938        1.77657
H          3.03230        2.74452        1.03788
H          2.26117        1.24860        1.62815
