42
2msa2eda_514.log	Energy: -1072746.0855505
S         -0.68005       -2.09923       -0.22691
O         -1.72563       -3.10064       -0.36674
O         -0.77166       -0.88748       -1.04286
O          0.69672       -2.81455       -0.49695
H          1.43917       -2.14455       -0.65751
C         -0.58059       -1.60817        1.47822
H         -1.52667       -1.11212        1.70919
H         -0.45871       -2.51016        2.07829
H          0.27462       -0.93687        1.59082
S          3.09776       -0.12443        0.07780
O          2.64470       -1.16432       -0.87897
O          2.22890        0.01695        1.26669
O          3.33086        1.19695       -0.58564
H          2.30058        2.24575        0.06151
C          4.69934       -0.66588        0.64627
H          4.57370       -1.63570        1.12828
H          5.35648       -0.74942       -0.21945
H          5.08172        0.07020        1.35363
H         -5.67026        1.15526        0.38688
H         -4.76586        2.05152       -0.84105
H         -4.79539       -0.32731       -1.37331
H         -3.13785        0.18281       -1.02893
H         -4.85479       -1.26420        0.84950
H         -3.46997       -1.78523        0.16112
H         -4.17948        2.63698        1.49434
H         -3.52862        1.13970        1.64469
C         -4.66075        1.33209       -0.02159
C         -4.12028        0.01822       -0.57581
N         -3.74203        1.88041        0.97943
N         -3.95045       -0.95589        0.50391
H          0.24065        4.40881       -0.05270
H          1.43209        3.96683       -1.30523
H         -0.97079        3.07646       -1.71978
H          0.29383        1.84106       -1.72544
H         -1.77377        2.15243        0.28300
H         -0.89833        0.84727       -0.19106
H          1.97199        3.46717        1.19137
H          0.85313        2.21851        0.93754
C          0.76092        3.57855       -0.53746
C         -0.24294        2.55240       -1.08957
N          1.54966        2.86111        0.49421
N         -0.83376        1.83790        0.03184
