42
2msa2eda_612.log	Energy: -1072734.2443276
S         -0.20124       -2.19735        0.24621
O         -1.29450       -3.13804       -0.02079
O          0.15600       -1.30907       -0.88822
O          1.03240       -2.88126        0.78618
H          2.35785       -2.44754        0.33186
C         -0.74009       -1.13107        1.57488
H         -1.67210       -0.65218        1.26919
H         -0.91104       -1.75081        2.45564
H          0.03204       -0.38292        1.76164
S          0.60856        2.61935        0.08342
O          1.00536        1.84266        1.25649
O          1.62138        3.08653       -0.83915
O         -0.14048        3.95191        0.63131
H         -0.50980        3.75933        1.50509
C         -0.68076        1.77536       -0.78147
H         -0.29449        0.78746       -1.05591
H         -1.54991        1.66426       -0.11817
H         -0.92805        2.37010       -1.66139
H         -5.21730        0.70742       -0.80502
H         -3.79870        1.46166       -1.54574
H         -3.87649       -0.95465       -2.02681
H         -2.44252       -0.55086       -1.09080
H         -4.80883       -1.90855       -0.06638
H         -3.21742       -2.31502        0.06302
H         -4.16441        2.06427        0.83836
H         -3.79597        0.50994        1.21476
C         -4.11737        0.76749       -0.75835
C         -3.53422       -0.61659       -1.03720
N         -3.63462        1.25334        0.53711
N         -3.87267       -1.53517        0.04678
H          4.44670       -1.36513       -1.57296
H          2.73070       -1.75472       -1.90392
H          3.14220        0.75408       -1.61456
H          1.94633        0.03319       -0.53619
H          4.57153        1.01254        0.20971
H          3.14814        1.06045        1.01594
H          3.93254       -3.02548       -0.01943
H          3.76943       -1.56590        0.80074
C          3.42823       -1.34094       -1.17413
C          3.01207        0.07295       -0.76744
N          3.38585       -2.17206        0.05710
N          3.74201        0.47559        0.43515
