42
2msa2eda_398.log	Energy: -1072752.2005801
S          2.04210       -1.99267       -0.22301
O          2.63400       -2.82359       -1.26364
O          1.27221       -2.72441        0.81892
O          1.17180       -0.87557       -0.77901
C          3.35854       -1.14271        0.63278
H          3.95925       -1.89501        1.14465
H          3.96003       -0.61519       -0.10862
H          2.91939       -0.43655        1.33913
S          1.15691        2.32610        0.03385
O          1.66460        1.83066        1.31094
O         -0.29357        2.40953       -0.11533
O          1.78895        1.51234       -1.15526
H          1.59350        0.49921       -1.03742
C          1.86691        3.91991       -0.30089
H          2.95095        3.83435       -0.23432
H          1.55517        4.23547       -1.29617
H          1.48455        4.60218        0.45885
H         -0.60560       -0.73628        2.94650
H         -0.02344        0.10688        1.49938
H         -1.93114        1.31570        2.67653
H         -2.24546        0.94996        0.98998
H         -3.67691       -0.06136        3.22450
H         -4.01680       -0.14424        1.60577
H         -0.32573       -2.21202        1.08164
H         -1.97438       -2.08148        1.57879
C         -0.88056       -0.39780        1.94385
C         -2.11463        0.49535        1.97535
N         -1.17931       -1.61021        1.14267
N         -3.30274       -0.29287        2.31358
H         -1.45005       -1.37752        0.14998
H         -4.08255       -0.47098       -2.78952
H         -4.19579        1.13852       -2.07020
H         -1.93855        0.65281       -2.90376
H         -1.91995        0.97233       -1.17243
H         -1.88953       -1.73475       -2.31921
H         -0.60823       -0.96445       -1.66160
H         -5.28383       -0.47789       -0.69249
H         -3.90894       -1.33525       -0.52480
C         -3.77101        0.14052       -1.92507
C         -2.25236        0.25555       -1.92826
N         -4.27270       -0.39541       -0.65558
N         -1.62744       -1.03806       -1.62612
