38
2msa1ma1tma_110.log	Energy: -1003277.8242576
S          2.06814       -1.42042        0.31309
O          3.50405       -1.58578        0.52516
O          1.73230       -1.14432       -1.13203
O          1.43458       -0.37142        1.17547
H          1.47800        1.06351        0.53345
C          1.23434       -2.93542        0.73159
H          1.62500       -3.72136        0.08478
H          1.44712       -3.15443        1.77819
H          0.16530       -2.78026        0.57537
S         -1.60914       -0.20076       -0.82518
O         -1.40377        1.12803       -0.23439
O         -1.67335       -1.33624        0.08649
O         -0.52592       -0.44946       -1.93769
H          0.38864       -0.77532       -1.55234
C         -3.07904       -0.15300       -1.81493
H         -3.89024        0.08641       -1.11812
H         -2.96368        0.62608       -2.56847
H         -3.21081       -1.13165       -2.27559
N         -4.39602        0.78893        1.06229
H         -3.47972        1.22552        1.11380
C         -4.45333       -0.38746        1.93171
H         -4.29895       -0.17308        2.99925
H         -5.42776       -0.87182        1.81866
H         -3.68591       -1.09727        1.61384
H         -5.07920        1.48265        1.34545
N          1.75986        2.04070        0.20700
C          0.94450        3.00987        0.97396
H         -0.10500        2.81882        0.75090
H          1.12768        2.85337        2.03755
H          1.22578        4.02704        0.68969
C          3.20488        2.13217        0.52821
H          3.33585        1.98774        1.60049
H          3.73007        1.33365        0.00211
H          3.58434        3.11005        0.22268
C          1.51878        2.13929       -1.25408
H          2.03188        1.30980       -1.74234
H          0.44742        2.05398       -1.43039
H          1.89933        3.09877       -1.61348
