35
2msa1ma1dma_19.log	Energy: -978638.8708934
S          2.30203        0.04049       -0.42155
O          1.53901        1.23046       -0.89014
O          1.96194       -1.19769       -1.16807
O          2.20726       -0.14238        1.05238
H          1.15348       -1.77098        1.42335
C          4.01077        0.39391       -0.79070
H          4.10134        0.54090       -1.86699
H          4.29681        1.29782       -0.25262
H          4.61289       -0.45485       -0.46600
S         -2.46510       -0.35160       -0.42070
O         -3.67784       -1.16160       -0.42492
O         -1.49221       -0.71014        0.67436
O         -2.68481        1.12629       -0.39969
H         -1.38132        1.85043        0.26416
C         -1.58285       -0.67787       -1.94343
H         -1.40884       -1.75215       -2.02173
H         -2.21050       -0.34185       -2.76955
H         -0.63270       -0.14011       -1.92849
N          0.52569       -2.36786        0.86571
H         -0.36607       -1.79992        0.75396
C          0.29326       -3.70769        1.43030
H         -0.36237       -4.26839        0.76437
H          1.24174       -4.23374        1.54174
H         -0.18956       -3.60632        2.40206
H          0.98739       -2.35742       -0.05923
N         -0.48145        2.26612        0.63071
C         -0.34668        1.95313        2.06767
C         -0.44114        3.70507        0.31169
H          0.28499        1.79039        0.10169
H         -1.11955        2.48766        2.62311
H         -0.48309        0.87943        2.18479
H          0.64574        2.24802        2.41173
H         -1.27645        4.20740        0.80248
H          0.50398        4.12863        0.65584
H         -0.52546        3.82598       -0.76823
