42
2msa2eda_300.log	Energy: -1072756.6464282
S         -0.06996        2.13458       -0.97378
O          0.29383        0.78140       -1.50833
O          0.62925        2.45336        0.28224
O         -1.54817        2.28062       -0.89898
C          0.47695        3.30893       -2.19952
H          1.55647        3.20301       -2.31008
H         -0.03041        3.08784       -3.13848
H          0.22195        4.30842       -1.84665
S          2.64255       -0.84198        0.59151
O          3.71355       -1.81535        0.66775
O          1.34487       -1.17613        1.18556
O          2.44498       -0.49075       -0.93629
H          1.59109        0.02987       -1.11552
C          3.18141        0.69880        1.29602
H          3.32980        0.52934        2.36326
H          4.12108        0.97334        0.81651
H          2.40379        1.44555        1.11486
H         -1.85939       -1.14969        1.82600
H         -0.65573       -0.23806        0.91368
H         -0.91313        0.69938        3.20767
H         -1.35843        1.87112        1.96750
H         -3.21508        0.40431        3.69339
H         -3.18749        1.99804        3.33216
H         -2.87102       -0.74079       -0.21691
H         -3.50577        0.42523        0.87054
C         -1.63299       -0.17164        1.39142
C         -1.65976        0.93163        2.43910
N         -2.66687        0.11954        0.36484
N         -3.02650        1.07262        2.95366
H         -2.34031        0.91248       -0.23359
H         -2.07581       -3.61457       -2.38690
H         -2.09157       -1.88333       -2.77061
H          0.16309       -2.66965       -2.04402
H         -0.47668       -1.38859       -1.03615
H         -0.23715       -4.19336       -0.29439
H          0.17172       -2.84213        0.53529
H         -3.94539       -2.61087       -1.30639
H         -2.81767       -2.97154       -0.16042
C         -1.98591       -2.60629       -1.95570
C         -0.61515       -2.43887       -1.30395
N         -3.03002       -2.35795       -0.94821
N         -0.52707       -3.24385       -0.08520
