35
2msa1ma1dma_57.log	Energy: -978628.8317773
S         -0.72192        1.97855        0.00557
O          0.62432        2.24980       -0.57476
O         -0.65435        1.31246        1.32515
O         -1.62781        1.28966       -0.95418
C         -1.43729        3.58983        0.26733
H         -0.78507        4.14518        0.94127
H         -1.51069        4.08916       -0.69860
H         -2.42403        3.45373        0.71031
S          2.45245       -0.62715       -0.13079
O          3.63934       -1.42119       -0.37379
O          1.14453       -1.28826       -0.18935
O          2.47535        0.57627       -1.14783
H          1.69829        1.20766       -0.98013
C          2.56831        0.17218        1.45643
H          2.62217       -0.61598        2.20879
H          3.47638        0.77487        1.46806
H          1.67320        0.78319        1.59743
N         -1.09577       -1.65234        1.58012
H         -0.19165       -2.11525        1.57943
C         -1.94475       -2.10753        2.68062
H         -1.50059       -1.94930        3.67138
H         -2.89631       -1.57016        2.64826
H         -2.15740       -3.17427        2.56678
H         -0.89774       -0.65037        1.65271
N         -1.85264       -1.40649       -1.04940
C         -3.32385       -1.47632       -1.09916
C         -1.16341       -2.25370       -2.04040
H         -1.58285       -0.40293       -1.15146
H         -3.64792       -2.49783       -0.88987
H         -3.72569       -0.79570       -0.34806
H         -3.67620       -1.17103       -2.08610
H         -1.43846       -3.29748       -1.87471
H         -1.45817       -1.95180       -3.04756
H         -0.09004       -2.12821       -1.90381
H         -1.54182       -1.64075       -0.04650
