32
2msa2ma_107.log	Energy: -953962.2813624
S          0.95317        1.30276       -0.33592
O          0.78258        0.58226        0.95283
O          0.25706        0.60257       -1.45338
O          2.39248        1.53993       -0.64954
H          3.21787        0.15061       -0.25815
C          0.18652        2.89703       -0.17328
H         -0.87500        2.72420        0.01485
H          0.66228        3.42135        0.65553
H          0.33201        3.43372       -1.11084
S         -2.79789       -0.19074        0.19071
O         -4.05706       -0.88947        0.03428
O         -2.72614        1.25100       -0.01274
O         -1.74396       -0.90109       -0.76958
H         -1.02352       -0.25690       -1.06109
C         -2.14152       -0.55064        1.80717
H         -2.82323       -0.10583        2.53347
H         -2.11113       -1.63365        1.93028
H         -1.14653       -0.10566        1.87161
N          3.55139       -0.74932        0.18151
H          2.74126       -1.46038        0.06374
C          3.79449       -0.51681        1.62282
H          4.06154       -1.45621        2.10849
H          4.59459        0.21248        1.75101
H          2.86882       -0.12153        2.04279
H          4.38225       -1.08043       -0.30246
N          1.30765       -2.31156       -0.04432
H          1.17561       -3.13070        0.54133
C          0.96911       -2.62440       -1.44346
H         -0.05250       -2.99920       -1.55950
H          1.06048       -1.70979       -2.03297
H          1.67108       -3.36931       -1.82822
H          0.67518       -1.59143        0.30856
