35
2msa1ma1dma_15.log	Energy: -978638.4605085
S          2.40554       -0.13700       -0.50650
O          3.70568        0.52441       -0.53524
O          1.49956        0.34922        0.59917
O          2.44459       -1.62955       -0.45791
H          1.07780       -2.11306        0.29408
C          1.55124        0.26196       -2.02584
H          1.46955        1.34740       -2.10716
H          2.15177       -0.12392       -2.85045
H          0.56527       -0.20852       -2.01030
S         -2.22072       -0.42200       -0.51884
O         -1.89267       -0.62873        0.92857
O         -1.41933       -1.30108       -1.38733
O         -2.16625        1.02165       -0.88759
H         -1.04855        1.89733        0.00157
C         -3.93061       -0.88896       -0.72159
H         -4.03350       -1.94128       -0.45620
H         -4.54051       -0.26343       -0.06978
H         -4.19653       -0.73023       -1.76687
N          0.30206       -2.35771        0.97230
H         -0.45534       -1.64523        0.89155
C          0.85659       -2.36785        2.34219
H          0.06091       -2.55641        3.06347
H          1.62770       -3.13441        2.41614
H          1.30250       -1.38835        2.51316
H         -0.09725       -3.25350        0.70234
N         -0.30301        2.26202        0.64236
C         -0.84006        2.28641        2.01745
C          0.22484        3.55121        0.16342
H          0.46264        1.52917        0.59469
H         -1.62529        3.04178        2.08803
H         -1.25571        1.29942        2.22418
H         -0.03434        2.51912        2.71593
H         -0.56687        4.30238        0.17593
H          1.04826        3.86591        0.80672
H          0.59230        3.42557       -0.85530
