32
2msa2ma_129.log	Energy: -953959.3738035
S          2.12666       -0.92241       -0.32554
O          1.29606       -0.03244       -1.31765
O          2.75308       -1.98220       -1.08827
O          1.27138       -1.30903        0.81345
H         -0.24714       -1.95792        1.09666
C          3.35569        0.18564        0.30698
H          3.94843        0.53436       -0.53935
H          2.83584        1.01154        0.81318
H          3.97516       -0.38705        0.99856
S         -2.07407        0.58652       -0.29007
O         -2.39323        0.17055        1.10978
O         -2.25511       -0.49981       -1.26213
O         -0.71812        1.22238       -0.37175
H          0.48485        0.42863       -0.90348
C         -3.22026        1.89214       -0.68022
H         -4.22800        1.48164       -0.61549
H         -3.08300        2.69667        0.04212
H         -3.00634        2.23602       -1.69219
N          1.36604        2.54620        1.31847
H          0.48923        2.05945        1.14521
C          1.58896        3.53135        0.26209
H          0.80673        4.29962        0.18102
H          2.54777        4.03412        0.42343
H          1.64365        3.01303       -0.69952
H          1.29699        2.99636        2.22432
N         -1.21984       -2.23769        1.35286
H         -1.19874       -2.61806        2.29622
C         -1.77047       -3.20352        0.37050
H         -2.76894       -3.50627        0.68557
H         -1.83338       -2.69265       -0.59028
H         -1.11230       -4.06992        0.30714
H         -1.77154       -1.33409        1.35370
