30
2msa1eda_33.log	Energy: -953207.5563716
S         -1.64786       -1.25881        0.03761
O         -2.62262       -0.19865       -0.34886
O         -1.00145       -1.01644        1.33937
O         -0.65319       -1.45995       -1.06770
H          0.86603       -1.49724       -0.86547
C         -2.57325       -2.77323        0.16121
H         -3.32589       -2.64479        0.93925
H         -3.04003       -2.96690       -0.80423
H         -1.87743       -3.57000        0.42445
S          2.45315       -0.21107       -0.10730
O          3.86907       -0.14116       -0.38745
O          1.88300       -1.50525       -0.79382
O          1.61838        0.94374       -0.49009
H         -0.00836        1.22297       -1.01784
C          2.18974       -0.50325        1.62517
H          2.53423        0.38277        2.16017
H          1.12268       -0.67818        1.78311
H          2.78044       -1.37507        1.90700
H         -2.45365        2.43553        0.80559
H         -1.55671        3.92637        1.06902
H         -1.89364        3.49110       -1.33704
H         -0.16531        3.54029       -0.92057
H         -1.67153        0.97498       -1.08215
H         -0.83946        1.65528       -2.38016
H         -0.71788        1.15244        1.53137
H          0.42577        2.32874        1.31952
C         -1.46477        2.89418        0.70883
C         -1.09882        2.98904       -0.77902
N         -0.54623        2.15420        1.54640
N         -0.90046        1.63450       -1.36435
