35
2msa1ma1dma_303.log	Energy: -978612.8222474
S          2.22471        1.45946        0.09638
O          2.92887        2.56294        0.74252
O          1.83338        0.33404        0.98742
O          2.96810        0.90461       -1.10620
H          3.14387       -0.52138       -1.02666
C          0.70842        2.10701       -0.58784
H          0.11955        2.52494        0.22888
H          0.96877        2.88218       -1.30915
H          0.16095        1.29266       -1.06315
S         -1.94643       -0.78339        0.46909
O         -1.10137       -1.33236       -0.58374
O         -3.22612       -1.44537        0.73803
O         -2.23002        0.73848        0.17524
H         -3.27745        0.89783        0.05736
C         -0.99464       -0.70516        1.96434
H         -0.78933       -1.73595        2.25800
H         -0.06081       -0.17325        1.75419
H         -1.58988       -0.20302        2.72675
N         -4.76281        0.93467       -0.14762
H         -5.07977        0.23888        0.52409
C         -5.06300        0.48499       -1.51582
H         -6.13478        0.35254       -1.69505
H         -4.66885        1.21341       -2.22718
H         -4.55698       -0.46808       -1.68155
H         -5.22519        1.81351        0.06360
N          3.25088       -1.62156       -0.92952
C          1.89775       -2.21778       -1.02381
C          3.93763       -1.90039        0.35188
H          3.82670       -1.93792       -1.70748
H          1.27468       -1.76852       -0.25143
H          1.46697       -1.97270       -1.99431
H          1.95605       -3.30106       -0.89752
H          3.33464       -1.45641        1.14495
H          4.04611       -2.97807        0.49298
H          4.91611       -1.41923        0.33632
