40
2msa1dma1eda_389.log	Energy: -1038013.2435450
S          1.52800        0.29025       -0.83953
O          2.65828        0.38338       -1.74349
O          0.23048       -0.07690       -1.65961
O          1.21804        1.49874       -0.05109
H         -0.42421        1.80169        0.43770
C          1.75189       -1.05867        0.28903
H          1.86555       -1.97452       -0.29215
H          2.67129       -0.82662        0.84505
H          0.87451       -1.11473        0.93681
S         -2.14150       -1.73668        0.16235
O         -3.35190       -1.12121       -0.39617
O         -1.54510       -0.93237        1.27485
O         -1.09934       -2.06390       -0.86550
H         -0.27870       -0.91659       -1.33994
C         -2.59220       -3.30857        0.86600
H         -3.34601       -3.12926        1.63272
H         -2.99527       -3.92933        0.06578
H         -1.70025       -3.76290        1.29679
N          4.74288       -0.08437        1.24519
C          4.69615        1.36842        1.12966
C          5.43568       -0.70979        0.12518
H          5.19848       -0.34144        2.11417
H          4.12336        1.63971        0.23830
H          4.18564        1.79175        1.99865
H          5.69460        1.83082        1.04519
H          4.86942       -0.52268       -0.79262
H          6.45998       -0.32726       -0.02268
H          5.48850       -1.79121        0.28129
H         -1.86276        2.89714       -1.05246
H         -2.09704        1.15336       -1.29533
H         -4.30148        2.34909       -1.08469
H         -4.04960        1.14621        0.18093
H         -3.87607        4.05594        0.50429
H         -4.63479        2.95872        1.44899
H         -1.76227        2.37580        1.34188
H         -1.58915        0.73532        0.96393
C         -2.24593        1.97880       -0.59924
C         -3.70730        2.11524       -0.19289
N         -1.44371        1.71764        0.62307
N         -3.81504        3.11379        0.87516
