29
2msa1a1ma_49.log	Energy: -929308.4569085
S         -2.35639       -0.22327       -0.25582
O         -3.80836       -0.20989       -0.35400
O         -1.74875       -1.59715       -0.16900
O         -1.81634        0.61304        0.87825
H         -0.87545       -1.06028        2.66393
C         -1.68593        0.48504       -1.74977
H         -2.00294       -0.14497       -2.58165
H         -2.10418        1.48668       -1.86257
H         -0.59497        0.51166       -1.67700
S          2.26012       -0.36483       -0.30756
O          3.71531       -0.42897       -0.33935
O          1.62312        0.66367       -1.15921
O          1.72076       -0.21563        1.11764
H          1.04464        1.40752        1.07722
C          1.62911       -1.94149       -0.86767
H          1.99253       -2.09028       -1.88505
H          2.02372       -2.72450       -0.21785
H          0.53640       -1.91791       -0.85520
N         -0.34043       -1.65002        2.02995
H         -0.94459       -1.76314        1.14752
H         -0.12080       -2.53893        2.46916
H          0.53598       -1.13483        1.72719
N          0.32225        2.16455        1.09654
H         -0.58004        1.64081        0.91871
C          0.57019        3.22175        0.08913
H         -0.26751        3.91941        0.08814
H          1.49644        3.74310        0.33011
H          0.68096        2.73463       -0.87750
H          0.28124        2.54646        2.03886
