41
2msa1dma1tma_128.log	Energy: -1027936.9551386
S         -0.99713        2.54301       -0.05414
O         -1.68702        3.67465       -0.64257
O          0.43339        2.64820        0.22037
O         -1.13737        1.25797       -0.98412
C         -1.84821        2.05855        1.43386
H         -1.44030        1.11134        1.79072
H         -1.69521        2.86300        2.15436
H         -2.90673        1.93866        1.20246
S         -2.39587       -1.51654        0.15266
O         -1.79953       -1.29371        1.48195
O         -1.41467       -2.08570       -0.82111
O         -3.07533       -0.30507       -0.40372
H         -1.99763        0.73379       -0.84269
C         -3.68165       -2.73624        0.32587
H         -4.42091       -2.34701        1.02614
H         -4.12817       -2.90571       -0.65367
H         -3.22926       -3.64953        0.71241
N          4.70002       -0.33456       -0.08270
C          5.19721       -0.99561        1.11711
C          4.56765        1.10915        0.09004
H          5.33716       -0.52022       -0.85035
H          4.45686       -0.90060        1.91962
H          5.34369       -2.06153        0.92176
H          6.14488       -0.57495        1.49157
H          3.79311        1.32166        0.83402
H          5.49851        1.59496        0.42373
H          4.25174        1.57084       -0.84895
N          1.10836       -1.18566       -0.58639
C          1.74719       -2.52299       -0.61262
H          1.33745       -3.11860        0.20344
H          1.51664       -3.00590       -1.56268
H          2.82510       -2.39077       -0.49617
C          1.58799       -0.32955       -1.70107
H          1.35929       -0.82845       -2.64388
H          1.06502        0.62410       -1.65124
H          2.66451       -0.19803       -1.58178
C          1.29638       -0.53384        0.73796
H          0.96497        0.50244        0.67025
H          0.69505       -1.07311        1.47102
H          2.35954       -0.56803        0.97758
H          0.07900       -1.36800       -0.71370
