38
2msa1ma1tma_10.log	Energy: -1003294.4439275
S          2.62463       -0.86846       -0.17153
O          2.91788        0.45529       -0.80542
O          2.13010       -1.88840       -1.10441
O          1.73016       -0.68569        1.01530
C          4.19055       -1.44206        0.46255
H          4.87760       -1.54513       -0.37763
H          4.56461       -0.71085        1.17925
H          4.02797       -2.40596        0.94515
S         -3.15596        0.10527        0.04346
O         -3.07970        1.50132        0.49940
O         -2.99812       -0.90054        1.13755
O         -2.22558       -0.19785       -1.09023
C         -4.80429       -0.13359       -0.60395
H         -5.51410        0.05075        0.20294
H         -4.95408        0.57916       -1.41528
H         -4.89303       -1.15706       -0.96875
N         -0.65752       -2.00358        0.28282
H         -0.93419       -1.47496       -0.56300
H          0.20336       -1.56022        0.65703
C         -0.45595       -3.44004        0.01338
H         -0.23802       -3.95170        0.95109
H         -1.36530       -3.85131       -0.42494
H          0.38438       -3.54481       -0.67205
H         -1.46592       -1.80171        0.90681
N          1.23690        2.35998       -0.01805
C         -0.15853        1.88069        0.17692
H         -0.53703        1.45230       -0.75136
H         -0.14976        1.11199        0.94779
H         -0.80033        2.70705        0.48434
C          1.84678        2.79146        1.26050
H          1.84308        1.93800        1.93914
H          2.87404        3.10763        1.07489
H          1.26506        3.61525        1.67979
C          1.31798        3.40623       -1.06160
H          2.36580        3.65463       -1.23455
H          0.87900        3.01575       -1.97971
H          0.76638        4.28976       -0.73319
H          1.82877        1.54846       -0.35635
