28
2msa1dma_93.log	Energy: -918445.4196010
S         -2.15433       -0.59657       -0.13133
O         -3.54990       -0.60487       -0.50294
O         -1.17504        0.09578       -0.96974
O         -1.69684       -2.11903        0.01594
H         -0.72752       -2.20956       -0.14536
C         -1.98657        0.02679        1.52663
H         -2.31124        1.06851        1.50903
H         -2.62866       -0.56440        2.17927
H         -0.93675       -0.04761        1.81445
S          1.76668       -1.03855        0.02570
O          1.30965       -0.32953        1.20997
O          1.02810       -2.24158       -0.35866
O          3.31496       -1.44650        0.25226
H          3.42715       -1.76520        1.16065
C          1.97401        0.01681       -1.37648
H          0.97550        0.13953       -1.79752
H          2.34964        0.97919       -1.02607
H          2.64473       -0.48601       -2.07312
N          0.53707        2.63613       -0.13831
C          0.10039        3.74983       -0.96463
C          0.58780        2.96952        1.27501
H         -0.09053        1.84943       -0.28135
H          0.85307        4.54558       -0.93613
H         -0.00411        3.42067       -2.00204
H         -0.86181        4.18623       -0.64322
H          1.35434        3.73407        1.44459
H         -0.36614        3.36605        1.66974
H          0.86398        2.08068        1.84741
