42
2msa2eda_43.log	Energy: -1072768.9580385
S         -2.55213        0.09637        0.23368
O         -2.84930       -0.83833       -0.86857
O         -2.77242        1.52417       -0.06215
O         -1.16720       -0.14693        0.78567
C         -3.65192       -0.31841        1.57898
H         -3.50066       -1.36662        1.83825
H         -3.41689        0.32499        2.42693
H         -4.67434       -0.15061        1.23918
S          3.07976       -0.12684        0.10170
O          3.12432        1.35657       -0.02603
O          2.79308       -0.80634       -1.19751
O          2.15562       -0.57941        1.16400
C          4.73174       -0.61599        0.56217
H          5.41531       -0.29047       -0.22196
H          4.97408       -0.13444        1.50967
H          4.75134       -1.70114        0.66527
H          0.94301       -3.86851       -0.62434
H          0.91607       -2.91701        0.88814
H         -0.97886       -4.64937        0.66570
H         -1.51613       -2.99678        0.97175
H         -2.29948       -4.54044       -1.16272
H         -2.44942       -2.89549       -1.07851
H         -0.20009       -1.17492       -0.24359
H          1.24183       -1.52394       -1.06579
C          0.37581       -3.14670       -0.03204
C         -1.04466       -3.64964        0.22648
N          0.29395       -1.89255       -0.81589
N         -1.79666       -3.67474       -1.02610
H         -0.27176       -2.07140       -1.65029
H         -1.07589        2.88528        1.20720
H          0.53367        3.59416        1.50296
H         -1.07186        5.01020        0.07011
H          0.50223        4.70249       -0.68193
H         -1.90548        3.10789       -1.27781
H         -1.08922        4.12043       -2.31408
H          0.06793        1.13138        0.54215
H          0.15269        2.01455       -0.86447
C         -0.14061        3.20037        0.74164
C         -0.43019        4.22782       -0.35750
N          0.46225        1.99394        0.12242
N         -1.00372        3.52714       -1.49951
H          1.50528        1.93833        0.14415
