37
2msa1ma1eda_360.log	Energy: -1013355.7358866
S          2.87410       -0.12819       -0.18812
O          3.10095        1.17794        0.48944
O          1.96233       -0.01840       -1.34717
O          2.44225       -1.18647        0.77522
H          1.12565       -1.93340        0.68924
C          4.46415       -0.65157       -0.79555
H          4.81928        0.09680       -1.50401
H          5.14196       -0.73472        0.05390
H          4.33509       -1.61766       -1.28367
S         -1.01169       -1.57898        0.44574
O         -2.18550       -2.36752        0.76971
O          0.25453       -2.47578        0.65232
O         -0.84054       -0.31104        1.17571
H          0.09941        1.11407        1.04462
C         -1.01127       -1.20824       -1.29083
H         -1.15602       -2.14525       -1.82922
H         -1.84820       -0.52414       -1.45357
H         -0.04803       -0.75599       -1.54107
N         -3.97699        0.10496       -0.19510
H         -3.67074       -0.37725        0.64576
C         -4.71268       -0.82711       -1.05196
H         -5.63409       -1.22483       -0.60478
H         -4.97143       -0.33224       -1.99280
H         -4.06733       -1.67829       -1.28371
H         -4.58665        0.86018        0.10100
H          0.60972        3.42465       -0.72440
H          0.37759        1.74080       -1.22731
H         -1.76533        3.07560       -1.42709
H         -1.93196        1.75446       -0.27234
H         -1.70734        4.59122        0.37472
H         -2.67054        3.44382        1.03164
H          1.57827        1.87845        0.84315
H          0.22617        2.70013        1.53981
C          0.07847        2.49592       -0.49822
C         -1.42864        2.71157       -0.44776
N          0.54187        2.03144        0.83382
N         -1.74578        3.61862        0.65874
