38
2msa1ma1tma_22.log	Energy: -1003289.5810303
S         -1.76913        1.35593       -0.59330
O         -3.12880        1.74750       -0.95182
O         -1.34751        0.03179       -1.16696
O         -1.52658        1.35678        0.89236
H         -1.24194       -1.13848       -0.10023
C         -0.62320        2.53368       -1.28189
H         -0.81161        2.58996       -2.35457
H         -0.81202        3.50146       -0.81526
H          0.39238        2.17448       -1.09051
S          2.39169       -0.43890       -0.51608
O          3.76198       -0.94452       -0.45615
O          2.24906        1.03401       -0.60669
O          1.52732       -0.95616        0.62167
H          1.26000        0.36774        1.56417
C          1.64178       -1.10187       -1.99718
H          2.20934       -0.72017       -2.84673
H          1.71399       -2.19029       -1.96453
H          0.60489       -0.76252       -2.03933
N          0.85278        1.19200        2.09379
H         -0.06896        1.36617        1.60871
C          1.73895        2.37800        2.06890
H          1.22900        3.22263        2.53336
H          2.66177        2.15192        2.60344
H          1.97945        2.58290        1.02731
H          0.65350        0.89716        3.04674
N         -1.49835       -2.00122        0.47228
C         -1.21816       -1.72696        1.90081
H         -0.13850       -1.63674        2.01667
H         -1.71030       -0.78922        2.16392
H         -1.60257       -2.55210        2.50570
C         -2.95042       -2.17815        0.22670
H         -3.47211       -1.28270        0.56618
H         -3.11160       -2.29375       -0.84469
H         -3.30550       -3.05899        0.76669
C         -0.69539       -3.13693       -0.03902
H         -0.88737       -3.24527       -1.10732
H          0.35668       -2.90435        0.13165
H         -0.98571       -4.04986        0.48701
