37
2msa1ma1eda_157.log	Energy: -1013361.7550516
S         -1.42282       -1.79376       -0.01124
O         -2.59519       -0.98759       -0.40244
O         -1.20511       -1.92122        1.43753
O         -0.18970       -1.27150       -0.72601
C         -1.66404       -3.43345       -0.66669
H         -1.79367       -3.35396       -1.74581
H         -0.78478       -4.02994       -0.42261
H         -2.55537       -3.85163       -0.19834
S          2.87559        0.15417       -0.44010
O          2.23214        1.46739       -0.27663
O          3.17738       -0.26917       -1.79571
O          2.05653       -0.93575        0.33991
H          1.12540       -1.12497       -0.08048
C          4.35564        0.14886        0.54112
H          5.01703        0.90531        0.11763
H          4.09466        0.39342        1.57026
H          4.80710       -0.84039        0.47203
N         -0.95653        1.02628        2.08087
H         -1.67427        1.63398        2.46354
C          0.30206        1.11964        2.82626
H          0.18698        0.92393        3.89914
H          1.00227        0.38970        2.41363
H          0.73652        2.11496        2.69601
H         -1.30433        0.06672        2.11436
H         -1.31643        3.50242       -0.54905
H         -1.03115        2.84382       -2.17806
H         -3.43695        3.03785       -1.67107
H         -2.97440        1.35824       -1.96843
H         -4.39609        2.04244        0.11175
H         -3.27575        0.85970        0.22721
H          0.42761        1.75516       -0.62354
H         -0.79913        1.38734        0.46891
C         -1.41843        2.61663       -1.18078
C         -2.88044        2.19149       -1.25634
N         -0.58182        1.55305       -0.58352
N         -3.40100        1.85882        0.06609
H         -0.70125        0.63604       -1.03427
