37
2msa1ma1eda_318.log	Energy: -1013356.4808470
S          2.40958        0.00711       -0.64517
O          2.09481        1.30545       -0.02470
O          1.71368       -0.28239       -1.89237
O          2.22681       -1.13614        0.39155
C          4.16629       -0.05357       -0.89931
H          4.42138        0.75576       -1.58382
H          4.65829        0.08281        0.06336
H          4.41158       -1.02241       -1.33325
S         -1.21575       -1.88219        0.36255
O         -1.88340       -1.73648       -0.93480
O         -1.21016       -0.61995        1.16016
O          0.16482       -2.46794        0.27205
H          1.30837       -1.67481        0.31019
C         -2.12932       -3.07567        1.31932
H         -3.14761       -2.70421        1.43579
H         -2.12253       -4.01860        0.77243
H         -1.64257       -3.18689        2.28805
N          0.15996        1.86595        2.36348
H         -0.23064        0.93245        2.46683
C          0.11489        2.59541        3.62677
H          0.63799        2.10259        4.46011
H          0.55782        3.58656        3.49092
H         -0.92767        2.74234        3.92411
H          1.11800        1.73689        2.04980
H         -0.69614        2.13351       -2.41552
H         -0.69897        0.38641       -2.08524
H         -2.92806        1.12027       -2.94045
H         -3.02232        0.49191       -1.29723
H         -3.18743        3.31438       -2.07498
H         -4.14403        2.47333       -1.05012
H          0.25415        1.76080       -0.25631
H         -1.26873        2.42554       -0.03168
C         -1.13261        1.34443       -1.79657
C         -2.65045        1.32593       -1.89889
N         -0.75723        1.61451       -0.38775
N         -3.19062        2.58222       -1.37309
H         -1.00225        0.80423        0.22740
