42
2msa2eda_90.log	Energy: -1072768.1034961
S          2.96388        0.43494       -0.11940
O          2.05666        0.20285        1.04863
O          2.83999        1.78864       -0.67533
O          2.80997       -0.65745       -1.12695
C          4.62450        0.26446        0.51052
H          4.78045        1.03761        1.26319
H          4.72988       -0.72759        0.94986
H          5.31707        0.39412       -0.32141
S         -2.75639       -0.40519       -0.18454
O         -3.55089        0.76237       -0.57518
O         -2.01770       -0.21133        1.10781
O         -1.82225       -0.87342       -1.25449
C         -3.86582       -1.76804        0.11805
H         -4.56004       -1.47304        0.90515
H         -4.40146       -1.97586       -0.80864
H         -3.26379       -2.62553        0.42495
H          0.15279       -4.09867       -0.79226
H          1.87986       -3.62962       -0.79587
H          1.20579       -3.90641        1.47783
H          1.41550       -2.17021        1.21334
H         -0.73313       -3.19389        2.34742
H         -0.90567       -1.89320        1.38008
H          0.52457       -2.32568       -2.31869
H         -0.37290       -1.66960       -1.10086
C          0.86823       -3.31910       -0.52171
C          0.77942       -3.03402        0.97268
N          0.55906       -2.10459       -1.32494
N         -0.60772       -2.86827        1.39689
H          1.33957       -1.40599       -1.20436
H          0.62632        2.74465       -0.74554
H         -0.58182        1.49588       -1.10573
H         -1.53641        3.79921       -1.43912
H         -2.39987        2.86916       -0.21402
H         -0.50311        5.05011        0.30404
H         -2.01445        4.84287        0.89722
H          0.72793        1.28918        1.05125
H         -0.24275        2.59744        1.57494
C         -0.33725        2.32872       -0.44277
C         -1.45139        3.36815       -0.43369
N         -0.17751        1.79737        0.93700
N         -1.17352        4.35466        0.61464
H         -0.93872        1.11052        1.14095
