37
2msa1ma1eda_400.log	Energy: -1013354.5254962
S         -2.85774       -0.03927        0.57829
O         -3.99315        0.42648        1.34282
O         -1.70476       -0.38013        1.58952
O         -2.33283        0.85513       -0.47117
H         -0.93410        1.29362       -1.32856
C         -3.22968       -1.59710       -0.18787
H         -3.58833       -2.27030        0.59088
H         -4.00955       -1.41214       -0.92762
H         -2.31579       -1.97782       -0.65231
S          0.91589       -1.48821       -0.67978
O          1.41559       -0.56950       -1.74364
O         -0.21325       -2.33249       -1.08843
O          0.59595       -0.68477        0.56279
H         -0.80238       -0.54791        1.13624
C          2.28794       -2.52523       -0.24294
H          2.54521       -3.11180       -1.12573
H          3.11369       -1.86855        0.05390
H          1.96829       -3.17636        0.57130
N          4.11327        0.06398        0.70815
H          5.08535        0.33563        0.61263
C          3.70351        0.07036        2.10953
H          3.79188        1.04714        2.61126
H          2.66103       -0.25633        2.17504
H          4.30822       -0.64748        2.67167
H          3.55786        0.72919        0.17502
H          1.28395        3.20020       -1.86641
H         -0.42722        3.68291       -1.68579
H          0.73283        4.02215        0.40524
H         -0.46372        2.73980        0.60232
H          1.93462        2.41204        1.47286
H          1.28393        1.15843        0.65226
H         -0.33914        1.63582       -2.84158
H          0.63603        0.86018       -1.74574
C          0.33641        2.96438       -1.37773
C          0.50180        2.98708        0.13560
N         -0.09526        1.62077       -1.85299
N          1.59724        2.12620        0.56088
