44
2msa2tma_44.log	Energy: -1052598.5740947
S          1.29772        1.99868       -0.19870
O          2.11631        3.10372        0.29083
O          0.48624        1.35431        0.89730
O          2.06422        0.94592       -0.94076
H          2.65967       -0.22615       -0.12069
C          0.11675        2.62193       -1.37474
H         -0.51640        3.34641       -0.86121
H          0.66895        3.09890       -2.18478
H         -0.46089        1.77156       -1.74130
S         -0.69718       -1.55987       -0.66118
O          0.41727       -2.50292       -0.78370
O         -0.86534       -0.56072       -1.70782
O         -0.61357       -0.86727        0.75298
H         -0.15277        0.06931        0.73427
C         -2.21014       -2.46346       -0.47011
H         -2.38321       -2.98941       -1.40989
H         -2.09095       -3.17013        0.35128
H         -2.99303       -1.72282       -0.26471
N         -3.94383        0.20980        0.43244
C         -3.75797        0.10062        1.87014
H         -4.27044       -0.79239        2.24269
H         -2.69231        0.00333        2.09228
H         -4.15542        0.97833        2.41418
C         -3.22967        1.35959       -0.10108
H         -2.17530        1.30110        0.17735
H         -3.29405        1.36167       -1.19291
H         -3.63752        2.31542        0.28047
C         -5.35197        0.25653        0.08236
H         -5.46310        0.29952       -1.00530
H         -5.85588       -0.64546        0.44378
H         -5.86611        1.13580        0.51613
N          3.26756       -0.89331        0.45356
C          3.62517       -2.03541       -0.42096
H          2.70174       -2.52661       -0.72970
H          4.14863       -1.65102       -1.29696
H          4.26980       -2.72367        0.13152
C          4.44432       -0.07687        0.83539
H          4.93939        0.27027       -0.07142
H          4.09882        0.78993        1.40038
H          5.12647       -0.68144        1.43770
C          2.49150       -1.32416        1.64253
H          2.12274       -0.43493        2.15563
H          1.64567       -1.92277        1.30671
H          3.14183       -1.90795        2.29883
