40
2msa1dma1eda_318.log	Energy: -1038017.5944885
S          2.58796       -0.46637       -0.04704
O          2.01954       -1.82226        0.07480
O          2.98287        0.18904        1.19858
O          1.64124        0.40062       -0.87745
C          4.04559       -0.59604       -1.07075
H          4.76104       -1.22878       -0.54443
H          3.76537       -1.04210       -2.02494
H          4.45329        0.40478       -1.21376
S         -0.93577        2.40637       -0.24329
O         -1.33832        1.70040        0.97073
O         -1.40860        1.83152       -1.50322
O          0.61763        2.62012       -0.27935
H          1.11688        1.73276       -0.46725
C         -1.45040        4.10241       -0.13637
H         -2.53933        4.09964       -0.08134
H         -1.01766        4.53568        0.76488
H         -1.10677        4.62272       -1.02969
N         -0.96000       -1.55030        1.98917
C         -2.34376       -1.28760        2.38049
C          0.00453       -0.75007        2.75398
H         -0.74442       -2.53381        2.12567
H         -2.57036       -0.23959        2.16696
H         -3.02253       -1.91255        1.79107
H         -2.52839       -1.47546        3.44853
H         -0.15116        0.30478        2.51835
H         -0.11210       -0.89419        3.83835
H          1.01892       -1.01926        2.45758
H         -0.58299       -2.11292       -2.49455
H          0.11491       -2.85106       -1.04229
H         -1.98553       -4.02392       -1.70737
H         -2.16971       -3.24541       -0.13343
H         -3.25129       -2.19287       -2.64738
H         -4.05699       -2.56246       -1.27180
H          0.09542       -0.46596       -0.90644
H         -1.57497       -0.43606       -1.02944
C         -0.74484       -2.30040       -1.42861
C         -2.05179       -3.04832       -1.20453
N         -0.77637       -1.00121       -0.73018
N         -3.17560       -2.22232       -1.63602
H         -0.83381       -1.16274        0.32921
