40
2msa1dma1eda_220.log	Energy: -1038022.3452435
S          2.05864        0.86857       -0.79769
O          0.95898        1.80090       -0.36984
O          1.57530       -0.19271       -1.69866
O          2.79758        0.36192        0.38771
H          1.57983       -0.09318        1.60654
C          3.20602        1.87024       -1.72076
H          3.55934        2.67150       -1.07195
H          4.03186        1.23117       -2.03375
H          2.68052        2.27370       -2.58637
S         -2.40918        0.97941       -0.05675
O         -3.15062        2.03968        0.60203
O         -1.65862        0.05826        0.81845
O         -1.44110        1.56182       -1.14809
H         -0.46766        1.63791       -0.83876
C         -3.48551        0.00819       -1.07306
H         -4.24393       -0.41409       -0.41252
H         -3.94182        0.67285       -1.80699
H         -2.87083       -0.76972       -1.54243
N          0.71521       -0.01673        2.18197
C          0.67693        1.32367        2.80815
C          0.59569       -1.14417        3.12819
H         -0.07305       -0.06316        1.50937
H          1.48984        1.40417        3.53128
H          0.79674        2.06398        2.01737
H         -0.28654        1.45499        3.30252
H          1.41059       -1.09375        3.85244
H         -0.36439       -1.07176        3.64162
H          0.65724       -2.06209        2.54248
H          0.67919       -4.14326       -1.12142
H          0.13109       -4.32252        0.55184
H         -1.75814       -3.70495       -0.80123
H         -1.37185       -2.34783        0.26063
H         -0.32201       -1.26610       -1.62751
H         -0.71383       -2.51820       -2.59232
H          2.16173       -3.05182        0.46518
H          1.48412       -1.91510       -0.47127
C          0.31193       -3.58656       -0.24216
C         -1.01716       -2.92118       -0.60297
N          1.27628       -2.60227        0.25326
N         -0.99419       -2.02107       -1.75250
