32
2msa2ma_80.log	Energy: -953966.9545258
S         -2.30591        0.14053       -0.45394
O         -3.75446        0.28785       -0.51282
O         -1.75063       -1.14717       -0.92596
O         -1.75501        0.41335        0.94905
H         -1.08315       -1.16378        1.36704
C         -1.57759        1.41208       -1.47641
H         -1.93062        1.24913       -2.49537
H         -1.92364        2.38291       -1.11702
H         -0.48812        1.32701       -1.43097
S          2.30598       -0.14069       -0.45369
O          3.75452       -0.28824       -0.51267
O          1.75079        1.14693       -0.92610
O          1.75519       -0.41285        0.94945
H          1.08462        1.16496        1.36696
C          1.57743       -1.41252       -1.47561
H          1.93016       -1.24971       -2.49470
H          1.92365       -2.38327       -1.11617
H          0.48797       -1.32748       -1.42995
N         -0.36093       -1.87927        1.61897
H          0.54407       -1.43438        1.29335
C         -0.61532       -3.19671        0.99071
H          0.23615       -3.85221        1.17521
H         -1.52293       -3.62905        1.41142
H         -0.76479       -3.03016       -0.07398
H         -0.32124       -1.95203        2.63324
N          0.36137        1.87960        1.61824
H         -0.54295        1.43367        1.29205
C          0.61453        3.19718        0.98978
H         -0.23787        3.85168        1.17358
H          1.52136        3.63078        1.41088
H          0.76475        3.03048       -0.07479
H          0.32081        1.95258        2.63246
