41
2msa1dma1tma_20.log	Energy: -1027949.8837037
S          2.65861       -0.79350       -0.10350
O          2.41185       -1.92474        0.80682
O          3.16424        0.44139        0.50700
O          1.41047       -0.52962       -0.93830
H          0.90622        0.89411       -1.15699
C          3.87600       -1.33346       -1.29185
H          4.79718       -1.54608       -0.74855
H          3.50363       -2.23141       -1.78478
H          4.03307       -0.53106       -2.01294
S         -0.12165        2.33284        0.09208
O         -1.10098        3.35733       -0.21919
O          0.45774        1.80438       -1.27822
O         -0.55854        1.18300        0.89071
H          0.04081       -1.05537        0.12073
C          1.29002        3.05879        0.88635
H          1.64205        3.87551        0.25610
H          0.95782        3.43316        1.85544
H          2.05023        2.27991        0.99196
N         -0.68879       -1.66626        0.53550
C         -0.54616       -1.67527        2.00738
C         -0.54220       -2.99873       -0.08253
H         -1.62750       -1.25139        0.26352
H          0.45774       -2.02367        2.25325
H         -0.68450       -0.65647        2.36602
H         -1.30378       -2.33790        2.43200
H          0.45584       -3.37740        0.14227
H         -1.30848       -3.66939        0.31201
H         -0.65838       -2.89472       -1.16204
N         -3.18987       -0.69445       -0.30162
C         -2.91057       -0.02908       -1.57444
H         -2.20713        0.79037       -1.41713
H         -2.46265       -0.74226       -2.27328
H         -3.82701        0.37912       -2.03049
C         -4.10097       -1.81861       -0.48836
H         -3.67069       -2.53291       -1.19717
H         -4.26030       -2.32829        0.46667
H         -5.08149       -1.49599       -0.87691
C         -3.71941        0.25749        0.67603
H         -3.88727       -0.25282        1.62928
H         -2.99102        1.05518        0.83095
H         -4.67381        0.69458        0.33962
