37
2msa1ma1eda_143.log	Energy: -1013361.9151481
S          0.57503       -1.88837        0.18558
O          1.76888       -2.59769       -0.27692
O         -0.18542       -1.25043       -0.95199
O          0.83436       -0.88407        1.25408
H          0.49847        0.68633        0.74025
C         -0.54329       -3.08134        0.89698
H         -0.78832       -3.81782        0.13134
H         -0.03657       -3.55448        1.73833
H         -1.43639       -2.55335        1.23461
S         -2.91516        0.54499       -0.23112
O         -2.18838        1.66068       -0.85484
O         -2.73345        0.39307        1.20874
O         -2.60681       -0.78807       -0.98143
H         -1.56932       -1.00859       -0.96525
C         -4.64197        0.71642       -0.60187
H         -4.98229        1.62943       -0.11270
H         -4.75986        0.78703       -1.68254
H         -5.16355       -0.15281       -0.20229
N          0.37030        1.68587        0.45865
H          1.26657        1.98410       -0.01811
C          0.04328        2.50034        1.64483
H         -0.08345        3.54314        1.35210
H         -0.88214        2.12238        2.08049
H          0.85312        2.41604        2.37008
H         -0.40955        1.71632       -0.21312
H          4.93684        2.05297       -0.51163
H          3.96342        2.32491        0.94369
H          4.76571       -0.02512        0.79461
H          3.00540        0.05416        0.77650
H          4.70150       -0.61514       -1.47684
H          3.25267       -1.24460       -1.00766
H          2.98357        3.15928       -1.22036
H          2.78643        1.57447       -1.61513
C          3.98315        1.80665       -0.02162
C          3.90118        0.29390        0.19491
N          2.83309        2.23314       -0.83341
N          3.79264       -0.38590       -1.09213
