42
2msa2eda_529.log	Energy: -1072743.4078170
S          0.26798       -1.93762       -0.52358
O          0.36326       -0.85939       -1.65073
O         -0.92367       -2.76636       -0.67685
O          0.42063       -1.29366        0.79684
H         -0.79402       -0.36222        1.58380
C          1.72911       -2.87131       -0.85784
H          1.62415       -3.30503       -1.85270
H          2.59005       -2.18772       -0.79693
H          1.77724       -3.65456       -0.10026
S         -0.90333        2.30316       -0.38286
O          0.46836        2.42431        0.11555
O         -1.94265        2.28479        0.69141
O         -1.09574        1.13419       -1.31030
H         -0.21482       -0.01234       -1.47332
C         -1.27618        3.73716       -1.37217
H         -0.53885        3.79116       -2.17328
H         -2.28167        3.62465       -1.77691
H         -1.21097        4.61392       -0.72761
H          3.78662        1.59429       -0.56264
H          2.29460        0.66938       -0.74120
H          2.51113        1.35265        1.55089
H          2.69849       -0.40432        1.45834
H          4.89633        1.50822        1.79837
H          4.47526        0.28013        2.78784
H          4.27847       -0.39318       -1.78920
H          4.88461       -0.62021       -0.28225
C          3.29643        0.64003       -0.30637
C          3.17446        0.54806        1.20672
N          4.02336       -0.52676       -0.81629
N          4.50996        0.56939        1.81727
H         -2.52676       -0.54217       -0.33549
H         -4.02734        0.02448        0.37544
H         -3.52439       -0.91723        2.52321
H         -2.29918       -2.00707        1.84062
H         -1.86890        0.92992        1.60309
H         -1.49019        0.09388        3.02610
H         -4.68308       -1.85532       -0.76646
H         -3.36598       -2.72242       -0.33564
C         -3.32835       -0.81718        0.36140
C         -2.74912       -1.01490        1.76123
N         -4.03822       -2.03442       -0.00597
N         -1.67007       -0.01818        2.03130
