41
2msa1dma1tma_97.log	Energy: -1027941.5865664
S          1.99602        0.68780       -0.93977
O          0.99527        1.20660       -1.87840
O          2.39559       -0.71860       -1.11998
O          1.57246        0.91859        0.50761
C          3.46506        1.68283       -1.12992
H          4.20740        1.34692       -0.40595
H          3.82972        1.54227       -2.14789
H          3.19963        2.72605       -0.95811
S         -1.78038        1.51557        0.72688
O         -2.87144        2.04966        1.51555
O         -1.45427        0.08993        0.84828
O         -0.48506        2.35448        1.07271
H          0.34909        1.84115        0.80916
C         -2.05271        1.86568       -0.99360
H         -2.90277        1.26151       -1.31458
H         -2.27413        2.92885       -1.08711
H         -1.14428        1.59979       -1.54011
N         -1.85959       -2.59026       -1.73408
C         -1.03822       -1.53397       -2.31033
C         -3.14999       -2.09951       -1.27232
H         -1.99975       -3.32531       -2.41827
H         -0.78605       -0.80534       -1.53573
H         -0.09847       -1.94572       -2.68646
H         -1.53462       -0.98868       -3.13227
H         -2.99070       -1.39519       -0.44919
H         -3.72766       -1.57886       -2.05782
H         -3.75280       -2.93112       -0.89658
N          0.97704       -1.53247        1.63130
C          2.40683       -1.86421        1.85292
H          2.90603       -1.85870        0.88400
H          2.84621       -1.10259        2.49784
H          2.47457       -2.84588        2.32676
C          0.23087       -1.42059        2.90845
H          0.70919       -0.66140        3.52865
H         -0.79085       -1.11914        2.68351
H          0.25391       -2.38785        3.41522
C          0.33640       -2.49174        0.69064
H         -0.69780       -2.19873        0.52317
H          0.87836       -2.44906       -0.25368
H          0.38615       -3.49224        1.12626
H          0.97740       -0.59172        1.17356
