42
2msa2eda_325.log	Energy: -1072756.9714154
S          2.05017       -0.56902       -1.44610
O          2.74104       -0.46325       -2.72581
O          1.13153        0.58896       -1.15278
O          2.95347       -0.72918       -0.25431
H          2.54868        0.40672        0.80796
C          1.02764       -2.02631       -1.47189
H          0.30882       -1.93118       -2.28594
H          1.68640       -2.88128       -1.62963
H          0.48751       -2.09878       -0.52560
S         -2.36815       -1.01427        0.03191
O         -1.39041       -1.73321        0.86558
O         -2.14297       -1.10406       -1.42638
O         -2.51347        0.43344        0.44305
H         -1.89376        1.24352       -0.94810
C         -3.96231       -1.75008        0.36088
H         -3.90825       -2.80130        0.07637
H         -4.17093       -1.65125        1.42635
H         -4.71393       -1.22849       -0.23173
H         -2.16831        3.36722        0.36623
H         -0.68988        4.33515        0.43341
H         -1.30021        3.74345       -1.86278
H          0.30173        3.10218       -1.42837
H         -1.54136        1.57309       -2.55453
H         -0.33522        1.01852       -1.52879
H         -0.56269        2.74039        2.09930
H         -1.00182        1.51549        1.13413
C         -1.07784        3.33217        0.23072
C         -0.76976        3.02739       -1.23103
N         -0.44900        2.38030        1.15538
N         -1.18517        1.64767       -1.60536
H          0.10277       -0.33125        2.05340
H          0.49412       -0.73286        3.72315
H          1.45913        1.40113        3.42672
H          2.82993        0.26910        3.29560
H          1.33779        1.57595        1.08075
H          2.91512        1.87535        1.53668
H          0.95062       -2.55512        2.27086
H          2.06335       -1.71054        1.43650
C          0.93216       -0.58434        2.73073
C          1.89354        0.59134        2.83426
N          1.63109       -1.80648        2.35437
N          2.20219        1.15064        1.48681
