42
2msa2eda_126.log	Energy: -1072765.8990177
S         -2.73976       -0.60761       -0.54023
O         -2.33241       -1.40861       -1.70764
O         -3.23931        0.74556       -0.82030
O         -1.60535       -0.55921        0.47595
C         -4.04248       -1.50296        0.28730
H         -3.66485       -2.49217        0.54828
H         -4.33027       -0.94791        1.18031
H         -4.88174       -1.58077       -0.40451
S          3.03619        0.37704       -0.15765
O          3.47882       -0.99642        0.12168
O          2.69625        1.20641        1.01157
O          1.88002        0.37510       -1.14754
C          4.37138        1.19512       -1.01523
H          4.59687        0.63220       -1.92100
H          4.06016        2.21143       -1.25732
H          5.23251        1.20812       -0.34633
H         -0.15558        3.55516       -0.94065
H         -1.42175        2.37597       -1.38981
H         -2.40245        4.27119       -0.10383
H         -2.58509        2.72194        0.71812
H         -0.68928        4.83783        1.45482
H         -1.72372        4.00695        2.41206
H          0.64463        1.36106       -0.43075
H          0.28646        2.14633        1.00079
C         -0.88159        2.83145       -0.55897
C         -1.85308        3.47760        0.41968
N         -0.12647        1.76826        0.14241
N         -1.12184        3.93243        1.60164
H         -0.75074        0.97111        0.39380
H          0.55895       -3.99467       -0.32357
H          2.12244       -3.11960       -0.45332
H          1.68966       -3.57518        1.86482
H          1.53154       -1.84421        1.60928
H         -0.28136       -3.11862        2.92464
H         -0.85015       -2.10761        1.77103
H          0.01442       -2.25303       -1.72742
H         -0.37922       -1.56143       -0.30454
C          1.09252       -3.06938       -0.09809
C          1.05657       -2.81272        1.40213
N          0.41977       -1.96040       -0.83882
N         -0.30220       -2.95099        1.92593
H          1.06681       -1.15733       -1.01756
