35
2msa1ma1dma_271.log	Energy: -978615.4053274
S          0.97244        1.46833        0.28850
O          2.21621        2.06658       -0.17988
O          0.29555        0.62424       -0.78583
O         -0.04220        2.44096        0.80255
H         -1.39199        2.23506       -0.02466
C          1.34192        0.35030        1.61946
H          2.04719       -0.39883        1.23750
H          1.79582        0.94164        2.41591
H          0.41176       -0.10801        1.96073
S         -1.91960       -1.59566        0.20532
O         -2.84863       -0.67147       -0.47531
O         -1.70345       -1.35505        1.62410
O         -0.57268       -1.66163       -0.57695
H         -0.13005       -0.69459       -0.64880
C         -2.51706       -3.24724       -0.04314
H         -3.47306       -3.31996        0.47591
H         -2.63979       -3.41485       -1.11247
H         -1.79122       -3.93816        0.38505
N         -2.18201        2.03183       -0.71076
H         -1.74369        2.07335       -1.63022
C         -3.31290        2.97014       -0.57202
H         -4.07707        2.74445       -1.31595
H         -3.73359        2.85908        0.42677
H         -2.95252        3.99032       -0.70253
H         -2.46843        1.04249       -0.57258
N          3.62063       -1.41100       -0.05202
C          4.66036       -0.39373        0.04378
C          3.01980       -1.47320       -1.37792
H          4.00370       -2.31778        0.19165
H          4.20518        0.59235       -0.09219
H          5.11557       -0.42609        1.03794
H          5.45796       -0.51214       -0.71037
H          2.52849       -0.51976       -1.59299
H          3.75264       -1.66800       -2.18049
H          2.25626       -2.25568       -1.40025
