40
2msa1dma1eda_484.log	Energy: -1038008.1666796
S          1.64771       -1.54624       -0.98087
O          0.66155       -2.33270       -1.73409
O          1.32812       -1.42856        0.47402
O          1.92864       -0.20015       -1.57200
C          3.19825       -2.42977       -1.07831
H          3.05485       -3.41213       -0.62744
H          3.46503       -2.52704       -2.13089
H          3.95797       -1.86417       -0.53830
S         -2.71175       -0.72269        0.28951
O         -1.99286        0.36128       -0.36517
O         -4.09678       -0.97380       -0.06511
O         -2.68485       -0.38586        1.88499
H         -3.59916       -0.39304        2.20297
C         -1.74333       -2.19664        0.23517
H         -1.56300       -2.42970       -0.81640
H         -0.77527       -1.99369        0.70231
H         -2.30294       -2.98265        0.74177
N          1.67708        0.90334        2.20136
C          0.65197        0.75448        3.22949
C          2.94978        1.37737        2.72928
H          1.80259        0.00023        1.73511
H          0.41924        1.73258        3.66430
H         -0.26012        0.35129        2.78177
H          0.96378        0.08375        4.04474
H          2.82834        2.38641        3.13768
H          3.34473        0.73302        3.53009
H          3.68847        1.41978        1.92450
H          0.34598        3.79106       -0.13594
H          1.80411        3.19797       -0.97540
H          0.23361        4.10218       -2.60178
H          0.37560        2.35629       -2.83641
H         -1.95294        3.46123       -2.73378
H         -1.78616        2.12213       -1.81687
H          1.00706        1.60492        0.74132
H         -0.42030        1.43510       -0.13153
C          0.73224        3.04114       -0.83027
C         -0.00987        3.13241       -2.15754
N          0.56551        1.70427       -0.22041
N         -1.45212        3.07328       -1.94388
H          1.03497        0.96542       -0.80777
