34
2msa1a1eda_164.log	Energy: -988704.7927617
S         -2.70605        0.53938       -0.27542
O         -4.01568        1.14981       -0.45508
O         -2.73772       -0.94806       -0.03773
O         -1.85961        1.18319        0.78758
H         -1.60011       -0.35855        2.61425
C         -1.80165        0.72804       -1.80692
H         -2.37936        0.24177       -2.59361
H         -1.71140        1.79456       -2.02062
H         -0.81957        0.25631       -1.71451
S          1.49354       -1.62274       -0.22915
O          2.72231       -2.39177       -0.07930
O          1.51765       -0.55134       -1.25600
O          1.01947       -1.02076        1.09238
H          0.89789        0.66027        0.76172
C          0.18648       -2.74431       -0.70351
H          0.44406       -3.15472       -1.68038
H          0.14288       -3.54693        0.03454
H         -0.76042       -2.20032       -0.75096
N         -1.41768       -1.26823        2.19095
H         -1.61203       -2.02307        2.84124
H         -0.42170       -1.28234        1.84758
H         -2.04026       -1.28839        1.31564
H          1.60610        3.55477        0.65973
H          1.75192        2.49030        2.08484
H          3.93067        2.78353        0.80257
H          3.41985        1.09924        0.93668
H          3.96509        2.36708       -1.41226
H          2.99910        1.03291       -1.30476
H         -0.21373        1.87420        0.61235
H          0.92314        1.59106       -0.58784
C          1.81429        2.53669        0.99527
C          3.17471        2.06483        0.47477
N          0.77982        1.64528        0.42713
N          3.13264        1.98894       -0.98174
