30
2msa1eda_31.log	Energy: -953206.0663817
S          2.24598       -0.52242       -0.10147
O          2.19315        0.50215       -1.15466
O          1.30882       -1.66889       -0.34794
O          2.07081        0.05010        1.26568
C          3.86378       -1.26567       -0.11534
H          4.01824       -1.71315       -1.09716
H          4.59648       -0.48053        0.07158
H          3.89938       -2.02405        0.66640
S         -2.04201       -0.96666        0.05020
O         -3.21735       -0.32868       -0.52371
O         -1.39978       -0.32232        1.19660
O         -1.00844       -1.15493       -1.11004
H         -0.03812       -1.35707       -0.78065
C         -2.45019       -2.63297        0.51810
H         -3.18958       -2.57891        1.31760
H         -2.85984       -3.13882       -0.35588
H         -1.53811       -3.11957        0.86530
H          0.29562        3.89077        0.41198
H          1.45756        2.68244       -0.22499
H         -0.42962        3.03828       -1.81851
H         -0.39475        1.39227       -1.21059
H         -2.35358        3.43731       -0.53375
H         -2.55084        1.80303       -0.65488
H          0.40514        2.50976        2.20760
H         -0.74990        1.66840        1.34911
C          0.43878        2.84457        0.13032
C         -0.58823        2.42867       -0.92078
N          0.22867        2.00113        1.34533
N         -1.92382        2.54015       -0.34673
H          0.87195        1.15919        1.33567
