42
2msa2eda_485.log	Energy: -1072746.7493175
S          1.99641       -1.26115       -0.73866
O          1.32473       -1.44489        0.57396
O          2.47538        0.14701       -0.91095
O          1.19098       -1.73669       -1.88327
C          3.47140       -2.26835       -0.70592
H          4.09499       -1.94099        0.12670
H          3.17053       -3.30785       -0.57328
H          3.99246       -2.13654       -1.65435
S         -2.58443       -0.89316        0.72530
O         -1.69036       -0.15956        1.60212
O         -3.46409       -0.14722       -0.16882
O         -3.55434       -1.79436        1.67043
H         -4.46889       -1.54000        1.48202
C         -1.69731       -2.15840       -0.13248
H         -0.98909       -1.66329       -0.79954
H         -1.14469       -2.73975        0.60512
H         -2.41830       -2.76331       -0.68174
H          1.24604        3.00442        1.88403
H          0.23566        1.82971        2.77076
H          2.53474        1.65311        3.53602
H          2.11673        0.17686        2.64779
H          4.32034        1.36697        2.11443
H          3.40049        1.00719        0.80365
H         -0.21924        1.89789        0.35140
H          1.34168        1.26645        0.07515
C          1.04997        1.94280        2.05097
C          2.31657        1.25357        2.54063
N          0.58236        1.35967        0.77198
N          3.43726        1.56134        1.65850
H          0.26748        0.39199        0.91933
H         -2.33816        2.81141       -2.49195
H         -0.99391        3.86656       -2.04185
H         -0.29922        2.01712       -3.54643
H          0.57957        2.01201       -2.02291
H         -1.65337        0.22013       -2.63325
H         -0.08557       -0.18801       -2.34328
H         -2.15058        3.41160       -0.07556
H         -2.24251        1.80838       -0.37252
C         -1.40411        2.85997       -1.91146
C         -0.40835        1.84306       -2.46442
N         -1.64741        2.62892       -0.48024
N         -0.81739        0.48673       -2.12132
