22
2msa1a_07.log	Energy: -869148.2386243
S         -2.21162       -0.14657       -0.08271
O         -3.55872       -0.58562       -0.35861
O         -1.94510        1.30491       -0.09276
O         -1.24444       -0.85831       -1.09470
H         -0.29984       -0.45160       -1.12631
C         -1.68830       -0.76600        1.50163
H         -2.32797       -0.30318        2.25434
H         -1.82888       -1.84724        1.49908
H         -0.63993       -0.49566        1.65665
S          2.06433       -0.20878       -0.03256
O          3.42058        0.24404       -0.31025
O          1.10985        0.07844       -1.16792
O          1.47030        0.34199        1.23222
H          0.92318        1.86037        0.74584
C          2.07973       -1.97941        0.16542
H          2.49527       -2.41101       -0.74537
H          2.70837       -2.21566        1.02419
H          1.05829       -2.32788        0.32326
N          0.43923        2.56155        0.11978
H          0.44395        3.50422        0.49813
H         -0.53176        2.19114       -0.00651
H          0.91290        2.52014       -0.78359
