37
2msa1ma1eda_532.log	Energy: -1013349.4261032
S         -0.49435        1.79723       -0.31213
O         -0.53047        0.96213       -1.52559
O          0.05540        1.06542        0.87381
O         -1.84105        2.37355        0.02491
H         -2.79433        1.33377        0.61110
C          0.57544        3.17952       -0.60380
H          1.58951        2.78280       -0.74770
H          0.20806        3.70063       -1.48820
H          0.53403        3.82548        0.27379
S          1.51824       -2.10469       -0.05425
O          1.54272       -3.51428        0.28408
O          2.72797       -1.30394        0.07174
O          0.36622       -1.46116        0.83830
H          0.34604       -0.44249        0.82019
C          0.88889       -1.91001       -1.70819
H          1.65977       -2.27573       -2.38780
H         -0.01516       -2.51316       -1.79801
H          0.67138       -0.85269       -1.87791
N          3.44300        1.70265       -0.14463
H          3.24972        0.71127       -0.26606
C          3.37361        2.03155        1.27934
H          4.07119        1.46274        1.91041
H          3.57490        3.09878        1.42097
H          2.35876        1.83214        1.63466
H          4.37781        1.86696       -0.50254
H         -4.84081       -0.71949       -0.09534
H         -3.89751        0.35851       -1.16357
H         -3.07394       -2.07270       -1.14122
H         -1.84873       -0.87005       -0.72773
H         -3.06990       -2.77522        1.09318
H         -1.55664       -2.10834        1.09437
H         -4.32211        1.03994        1.31266
H         -3.09173       -0.07667        1.58256
C         -3.86036       -0.26932       -0.27177
C         -2.77108       -1.34481       -0.37982
N         -3.51512        0.58002        0.89982
N         -2.54471       -1.92301        0.94076
