32
2msa2ma_100.log	Energy: -953959.6267714
S         -2.36198       -0.68539       -0.05940
O         -3.60805       -1.31179        0.32373
O         -1.34274       -1.82814       -0.40807
O         -1.73335        0.22989        0.91960
H         -0.45916       -0.11943        1.98258
C         -2.55219        0.21810       -1.57458
H         -2.84174       -0.49333       -2.34778
H         -3.34102        0.95261       -1.40721
H         -1.61263        0.73329       -1.79544
S          2.03843       -0.62782       -0.46816
O          2.05099       -1.42869        0.79392
O          2.18095        0.81767       -0.21913
O          0.85134       -0.95882       -1.31507
H         -0.43747       -1.47729       -0.74182
C          3.45101       -1.16118       -1.40896
H          3.35852       -2.23299       -1.58307
H          3.44962       -0.61370       -2.35152
H          4.34707       -0.93530       -0.83097
N          0.42572       -0.20694        2.52964
H          0.22936       -0.71964        3.38622
C          0.99881        1.13606        2.79329
H          1.91684        1.02696        3.37017
H          1.23372        1.58683        1.82849
H          0.27506        1.74131        3.33885
H          1.09054       -0.77078        1.92500
N         -0.36138        2.50963       -0.76718
H         -0.89846        2.27033        0.06027
C         -0.09522        3.94127       -0.83395
H          0.47791        4.34574        0.01574
H          0.46499        4.16185       -1.74701
H         -1.04091        4.48922       -0.89266
H          0.50668        1.98032       -0.72088
