43
2msa1eda1tma_93.log	Energy: -1062681.0483137
S         -2.75061       -0.59692       -0.54547
O         -2.85583       -1.59000        0.53763
O         -1.78909       -0.97377       -1.61450
O         -2.46275        0.78567       -0.03247
C         -4.35267       -0.49013       -1.31976
H         -4.59811       -1.47308       -1.72219
H         -5.07592       -0.19208       -0.56069
H         -4.29870        0.25156       -2.11662
S          0.40392        2.52021        0.32255
O          1.34988        3.52573       -0.12176
O          0.94334        1.28041        0.88783
O         -0.53493        2.18728       -0.89651
H         -1.30741        1.57324       -0.61642
C         -0.72057        3.21200        1.51662
H         -0.14482        3.44018        2.41402
H         -1.15261        4.11714        1.09016
H         -1.49053        2.46641        1.72305
H         -0.76508       -2.94508       -0.05935
H          0.95036       -3.38549       -0.23272
H         -0.00912       -3.84327        2.06454
H          1.38639       -2.75341        2.11157
H         -1.39353       -1.77129        2.12532
H         -0.31298       -1.70509        3.38819
H         -0.10150       -1.04906       -0.90879
H          0.31387       -0.68945        0.65412
C          0.25019       -2.71437        0.26980
C          0.34090       -2.83720        1.78964
N          0.53517       -1.31698       -0.13787
N         -0.40770       -1.74127        2.38207
H          1.54994       -1.14733       -0.39335
N          3.24424       -0.83048       -0.68468
C          3.78741       -0.55287        0.64364
H          3.22345        0.26533        1.09777
H          3.68607       -1.44233        1.27396
H          4.85424       -0.27777        0.60042
C          3.91666       -1.96312       -1.31035
H          3.82253       -2.84880       -0.67445
H          3.45344       -2.17857       -2.27749
H          4.98982       -1.76846       -1.47503
C          3.31031        0.35896       -1.53445
H          2.82003        0.15660       -2.49087
H          2.79420        1.18799       -1.04681
H          4.35292        0.65842       -1.73091
