26
2msa2a_48.log	Energy: -904640.7377133
S         -1.42933       -0.70619       -0.09573
O         -0.62287       -1.66267       -0.85682
O         -2.03800        0.38689       -0.92558
O         -0.66847       -0.07652        1.04422
H         -0.63997        2.39778        0.81430
C         -2.78601       -1.58375        0.64525
H         -3.43339       -0.86560        1.15188
H         -3.32886       -2.08362       -0.15798
H         -2.36761       -2.31532        1.33675
S          2.66957        0.14159        0.06900
O          4.03292        0.39178        0.47762
O          1.93845        1.23861       -0.59633
O          1.86010       -0.31143        1.34124
H          0.85127       -0.28119        1.20102
C          2.59808       -1.26636       -1.00907
H          3.12529       -0.99602       -1.92467
H          3.09712       -2.09368       -0.50436
H          1.54631       -1.49381       -1.20234
N         -0.46287        2.41590       -0.18923
H         -0.54673        3.35643       -0.56369
H         -1.15026        1.73285       -0.62202
H          0.49800        2.02688       -0.34555
N         -4.89776        0.95834        0.18099
H         -4.06250        0.92365       -0.40055
H         -5.13539        1.92905        0.35145
H         -5.66218        0.54375       -0.34083
