43
2msa1eda1tma_259.log	Energy: -1062666.9182751
S          2.83954       -1.49401       -0.34383
O          3.80882       -0.47209        0.04285
O          1.92888       -1.16392       -1.43740
O          2.03076       -1.99111        0.91034
H          1.37473       -1.26019        1.24047
C          3.70752       -2.99394       -0.73487
H          4.33256       -2.77744       -1.60175
H          4.31883       -3.27331        0.12272
H          2.97621       -3.76680       -0.96884
S         -0.93023        0.01817        1.15155
O         -1.92979       -0.13463        2.20395
O          0.48980       -0.15104        1.63747
O         -1.01847        1.32970        0.41858
H          0.13219        2.28245        0.71481
C         -1.20001       -1.24030       -0.07508
H         -1.12115       -2.20671        0.42583
H         -2.20892       -1.09958       -0.48208
H         -0.43124       -1.14469       -0.84408
H          3.06631        2.94204        0.83806
H          2.30106        1.33750        0.99166
H          3.19270        1.71823       -1.32689
H          1.45540        1.46855       -1.30975
H          2.82118        4.00993       -1.76012
H          1.50996        3.39210       -2.51170
H          0.94318        3.25610        1.85031
H          0.84274        3.76312        0.24924
C          2.24394        2.30585        0.49816
C          2.24434        2.16746       -1.01876
N          0.96111        2.95860        0.87808
N          1.96765        3.48195       -1.61275
N         -4.40097       -0.49419       -0.78911
C         -5.28342       -1.04158       -1.80210
H         -4.85524       -0.87889       -2.79615
H         -5.40037       -2.11908       -1.65170
H         -6.29019       -0.57972       -1.77971
C         -4.89981       -0.76154        0.55150
H         -5.01702       -1.84056        0.69231
H         -4.18318       -0.39732        1.29245
H         -5.88089       -0.28139        0.73412
C         -4.18588        0.92960       -0.99125
H         -3.47605        1.30748       -0.25089
H         -3.75912        1.10021       -1.98479
H         -5.12699        1.50840       -0.91258
