37
2msa1ma1eda_225.log	Energy: -1013360.1906705
S         -2.66819        0.23897       -0.35367
O         -3.01007       -0.89647       -1.20196
O         -2.15856        1.44715       -1.04878
O         -1.71364       -0.14385        0.77251
C         -4.14366        0.75742        0.50530
H         -4.86097        1.09272       -0.24426
H         -4.53435       -0.09996        1.05339
H         -3.88693        1.57073        1.18392
S          1.01150       -2.01626        0.11960
O          1.99472       -1.30873        0.95000
O          0.81098       -1.45867       -1.22055
O         -0.33925       -2.17133        0.86949
H         -0.98237       -1.32040        0.76738
C          1.49957       -3.71484       -0.02662
H          1.58178       -4.13643        0.97484
H          0.74357       -4.23506       -0.61393
H          2.46453       -3.72659       -0.53388
N          0.65370        1.31021        1.82915
H         -0.31557        1.01175        1.92803
C          0.97888        2.42237        2.71940
H          0.82249        2.19956        3.78248
H          2.02720        2.70406        2.58325
H          0.36494        3.28902        2.45850
H          1.22912        0.49206        2.01927
H          1.64402        2.19426       -2.60309
H          1.11391        3.37744       -1.38227
H          3.57203        2.98377       -1.31878
H          2.78239        2.58782        0.21050
H          4.44634        0.92411       -0.86605
H          3.05195        0.27305       -0.31317
H         -0.39931        1.54207       -1.21554
H          0.83174        0.42951       -1.25841
C          1.54199        2.38301       -1.53244
C          2.89582        2.27022       -0.83856
N          0.59968        1.39208       -0.96883
N          3.44152        0.92852       -0.98784
H          0.63727        1.41351        0.09736
