37
2msa1ma1eda_170.log	Energy: -1013360.9930417
S         -0.87150        1.98681        0.01590
O         -1.88393        1.99034        1.08134
O         -1.26914        1.24344       -1.20907
O          0.46272        1.49642        0.51513
C         -0.61466        3.67703       -0.48661
H         -1.56048        4.06087       -0.86955
H         -0.29446        4.24404        0.38759
H          0.14970        3.69185       -1.26372
S          2.98633       -0.63661       -0.23729
O          4.11859       -1.05035       -1.03613
O          1.96432       -1.63575        0.10518
O          2.30247        0.57978       -0.96608
H          1.51780        0.95514       -0.42278
C          3.55194        0.07518        1.29433
H          3.98981       -0.72886        1.88650
H          4.29882        0.83272        1.05774
H          2.69389        0.51729        1.80329
N         -1.30505       -0.77100        2.12318
H         -0.39056       -0.62412        2.54071
C         -2.14108       -1.61365        2.98003
H         -2.31189       -1.19124        3.97789
H         -3.11486       -1.75731        2.50335
H         -1.67709       -2.59690        3.09683
H         -1.70753        0.16202        2.00987
H         -1.42281       -2.69599       -2.09109
H         -1.58109       -3.36142       -0.44432
H         -3.78294       -2.79246       -1.26658
H         -3.36695       -1.67047        0.03321
H         -4.32506       -0.72532       -2.13228
H         -2.91937       -0.00899       -1.68379
H          0.23090       -1.72436       -0.56188
H         -0.84907       -0.53921       -1.03094
C         -1.69604       -2.46506       -1.05943
C         -3.13070       -1.95278       -1.00723
N         -0.75930       -1.44421       -0.53504
N         -3.33796       -0.88965       -1.97804
H         -0.97501       -1.23185        0.49188
