32
2msa1a1dma_139.log	Energy: -953954.1834342
S         -0.88499        0.90712       -0.28291
O          0.30516        1.79205       -0.08804
O         -1.06569       -0.05398        0.84073
O         -0.85928        0.20528       -1.59576
H         -0.30896       -1.51518       -1.29230
C         -2.28358        1.99726       -0.27756
H         -2.27372        2.53864        0.66907
H         -2.17295        2.68557       -1.11572
H         -3.18944        1.38743       -0.36988
S          3.15711       -0.22065        0.26955
O          2.69306       -1.38607       -0.51338
O          2.86582       -0.24963        1.69147
O          2.67751        1.09904       -0.40718
H          1.67000        1.34286       -0.24868
C          4.90445       -0.07391       -0.00337
H          5.36472       -0.97536        0.40171
H          5.08239        0.00856       -1.07495
H          5.25570        0.81210        0.52460
N          0.05842       -2.11794       -0.52776
H         -0.19831       -3.09465       -0.62719
H         -0.36066       -1.67176        0.31287
H          1.09356       -1.98075       -0.49075
N         -4.70471       -0.27398        0.08428
C         -4.48941       -0.29869        1.52518
C         -4.11875       -1.42184       -0.58958
H         -5.69680       -0.22488       -0.11855
H         -3.41510       -0.22575        1.72382
H         -4.98021        0.56377        1.98469
H         -4.86846       -1.21553        2.00923
H         -3.03335       -1.38803       -0.45149
H         -4.48546       -2.39127       -0.20686
H         -4.32174       -1.36623       -1.66230
