42
2msa2eda_352.log	Energy: -1072753.4810069
S          2.08936       -1.53701        0.54860
O          1.85944       -1.14732        1.95055
O          2.83174       -0.52342       -0.24721
O          0.82316       -1.91776       -0.16372
C          3.08862       -3.01036        0.55436
H          4.03296       -2.77325        1.04469
H          2.54952       -3.78139        1.10496
H          3.25211       -3.31331       -0.47960
S         -2.41485       -1.16541       -0.85483
O         -2.55055       -2.40625       -1.59260
O         -1.90550        0.00375       -1.59858
O         -1.55117       -1.35688        0.45075
H         -0.57860       -1.62942        0.24640
C         -3.95579       -0.70809       -0.10930
H         -4.66928       -0.58596       -0.92532
H         -4.26421       -1.51710        0.55258
H         -3.79945        0.23493        0.42338
H          1.03682        2.17725       -2.83354
H          0.03881        2.97728       -1.59180
H          2.26390        3.97095       -1.63545
H          2.02784        3.13072       -0.10117
H          4.19427        2.74426       -1.42548
H          3.44282        1.36398       -0.95310
H         -0.18515        0.55803       -1.51863
H          1.45160        0.39658       -1.15640
C          0.91202        2.34084       -1.76148
C          2.17029        2.97825       -1.18448
N          0.63891        1.03468       -1.11823
N          3.34812        2.19832       -1.52848
H          0.42827        1.17017       -0.08554
H         -1.29979        3.47530        1.89285
H         -2.68087        2.72681        2.69908
H         -0.83109        1.53170        3.50434
H         -1.52180        0.46288        2.27204
H          0.83954        2.15674        1.95718
H          0.78298        0.53007        1.94382
H         -3.03155        3.01813        0.28517
H         -1.90894        1.86114       -0.00205
C         -1.90345        2.55224        1.94741
C         -1.00905        1.41628        2.42695
N         -2.56391        2.21441        0.68915
N          0.25749        1.36977        1.67854
