32
2msa1a1dma_136.log	Energy: -953954.3864712
S         -0.95350       -0.95858       -0.51897
O         -1.94343       -1.82811       -1.13696
O          0.45631       -1.51492       -0.58824
O         -1.23542       -0.63010        0.92434
H         -0.05552       -1.09506        1.80378
C         -0.93475        0.59676       -1.37957
H         -0.74335        0.39192       -2.43364
H         -1.92352        1.04300       -1.22892
H         -0.15338        1.22700       -0.95038
S          2.91076        0.62658        0.00276
O          3.03456       -0.15540        1.24894
O          2.02441        1.77864        0.05252
O          2.54389       -0.32535       -1.18110
H          1.63487       -0.82067       -0.99279
C          4.53764        1.12930       -0.49166
H          5.17088        0.24503       -0.55265
H          4.45697        1.62690       -1.45772
H          4.90015        1.82013        0.26994
N          0.83293       -1.51646        2.25106
H          0.93552       -2.45085        1.85882
H          0.76936       -1.55924        3.26409
H          1.65842       -0.95587        1.95184
N         -3.82957        1.01310        0.21055
C         -4.79724        0.08083       -0.34638
C         -4.44762        2.10884        0.93363
H         -3.18467        0.51162        0.81533
H         -5.37918        0.58314       -1.12798
H         -4.27022       -0.76277       -0.79883
H         -5.50970       -0.30958        0.40266
H         -5.03334        2.72297        0.24002
H         -5.12864        1.77889        1.73947
H         -3.67517        2.74659        1.37299
