32
2msa1a1dma_52.log	Energy: -953967.4654565
S         -2.30279        0.46263        0.03257
O         -3.64475        0.78669        0.46265
O         -1.65656       -0.48150        1.11122
O         -1.37911        1.57923       -0.24196
H          0.30393        1.89900       -0.07005
C         -2.36106       -0.54720       -1.42762
H         -2.98678       -1.41257       -1.20710
H         -2.80361        0.05727       -2.22032
H         -1.33863       -0.84697       -1.67047
S          1.61982       -1.02519       -0.19736
O          2.63388       -0.01140       -0.60152
O          0.72677       -1.45300       -1.28710
O          0.85350       -0.50487        0.99431
H         -0.62803       -0.51685        1.04170
C          2.49444       -2.45997        0.37853
H          3.07989       -2.84926       -0.45490
H          3.14219       -2.15933        1.20190
H          1.73828       -3.18045        0.70221
N         -0.72635       -3.60915        0.41159
H         -1.25307       -4.44549        0.18689
H         -0.50162       -3.12029       -0.45152
H         -1.32157       -2.99868        0.96256
N          1.27025        2.27584        0.00647
C          1.52010        2.60845        1.42569
C          1.41823        3.40501       -0.93271
H          1.89745        1.48100       -0.27188
H          0.79663        3.35701        1.75170
H          1.40230        1.69088        2.00167
H          2.53530        2.99381        1.53179
H          0.68904        4.17746       -0.68489
H          2.42967        3.80720       -0.85879
H          1.23875        3.04148       -1.94433
