35
2msa1ma1dma_268.log	Energy: -978615.9620350
S         -2.82436       -0.90674        0.22706
O         -3.17171        0.46599        0.64659
O         -1.96244       -1.65143        1.13343
O         -2.25188       -0.88861       -1.22091
H         -1.38678       -0.26555       -1.28458
C         -4.33903       -1.79097       -0.03793
H         -4.82530       -1.88610        0.93321
H         -4.95612       -1.21947       -0.73017
H         -4.09292       -2.77157       -0.44440
S          1.05900        0.42436       -0.74398
O          2.10481        0.83128       -1.67308
O         -0.33709        0.63801       -1.30705
O          1.12468        1.09535        0.59518
H         -0.21990        1.82816        0.97087
C          1.20635       -1.32045       -0.43653
H          1.10829       -1.83267       -1.39490
H          2.19801       -1.49864       -0.00129
H          0.41233       -1.62130        0.24996
N         -1.15495        2.33025        1.09715
H         -1.90335        1.61475        1.00101
C         -1.30594        3.36887        0.05021
H         -2.28201        3.84527        0.14218
H         -0.51032        4.10579        0.15857
H         -1.21207        2.86999       -0.91394
H         -1.19880        2.72207        2.03493
N          4.34815       -1.32000        0.71537
C          4.17636       -0.29690        1.73848
C          4.95468       -0.79830       -0.50338
H          4.91261       -2.07844        1.08184
H          3.45621        0.44878        1.38726
H          3.76840       -0.75057        2.64632
H          5.11482        0.22471        1.99629
H          4.27794       -0.06820       -0.95821
H          5.92802       -0.30667       -0.33066
H          5.09880       -1.61226       -1.21970
