42
2msa2eda_463.log	Energy: -1072747.1825751
S          0.78725        2.16450        0.31508
O         -0.13168        1.00398        0.64111
O          0.13382        3.46454        0.40576
O          1.43648        1.88086       -1.00772
H          0.57031        0.71703       -1.76138
C          2.07940        2.06804        1.52904
H          2.80634        2.84659        1.29327
H          1.62536        2.25576        2.50305
H          2.52811        1.06739        1.48510
S         -2.99075       -0.39298        0.03341
O         -2.61169       -1.59895        0.76003
O         -2.55028       -0.32677       -1.37375
O         -2.57212        0.89827        0.78849
H         -1.51684        1.04305        0.75576
C         -4.75587       -0.21867        0.06196
H         -5.17083       -1.08958       -0.44578
H         -5.07475       -0.18905        1.10358
H         -5.01955        0.70193       -0.45740
H          2.71789       -3.02921        2.16787
H          2.77388       -1.66677        3.29121
H          0.49316       -2.25243        3.06930
H          0.70143       -0.74146        2.16216
H          0.53412       -3.40373        0.96919
H         -0.55031       -2.19371        0.85007
H          4.15795       -1.25396        1.35674
H          2.86421       -1.28202        0.36437
C          2.46599       -1.95869        2.28007
C          0.95442       -1.80555        2.17469
N          3.15596       -1.09959        1.32392
N          0.44568       -2.39148        0.93022
H          2.16647       -0.72686       -3.75134
H          2.56457       -2.24152       -2.94067
H          0.20303       -2.06679       -2.79926
H          0.79467       -1.65400       -1.16525
H         -0.04873        0.27115       -3.25082
H         -0.89166       -0.12958       -1.87508
H          4.02790       -0.51528       -2.17080
H          2.77825        0.35530       -1.55303
C          2.19892       -1.22484       -2.76438
C          0.78386       -1.34551       -2.21914
N          3.08584       -0.58382       -1.80388
N          0.05886       -0.04379       -2.28758
