42
2msa2eda_85.log	Energy: -1072768.4177717
S          2.43075       -0.87051       -0.69747
O          1.89906       -1.88651       -1.62605
O          1.59155       -0.75295        0.54239
O          2.65282        0.46987       -1.30100
H          1.41441        1.54470       -0.71324
C          4.03225       -1.43977       -0.15847
H          3.90887       -2.41784        0.30663
H          4.67734       -1.50832       -1.03470
H          4.43029       -0.72052        0.55810
S         -2.45368        0.88906       -0.68238
O         -1.97379        2.05753       -1.45088
O         -1.66012        0.69367        0.57846
O         -2.51989       -0.37187       -1.46248
H         -1.46716       -1.53819       -0.75535
C         -4.12380        1.24484       -0.17395
H         -4.11500        2.14721        0.43766
H         -4.72027        1.39491       -1.07403
H         -4.49230        0.38862        0.39228
H          0.73095        2.40046        2.41420
H          1.84361        3.75893        2.36438
H          0.14334        3.91088        0.57570
H          1.77753        3.79648       -0.11033
H          0.02872        1.43203        0.24037
H         -0.04206        2.32925       -1.09332
H          2.35920        0.97572        1.55684
H          3.40899        2.20330        1.22912
C          1.55158        2.84282        1.83822
C          1.01639        3.26230        0.46510
N          2.65731        1.90609        1.84183
N          0.60333        2.08006       -0.33037
H         -0.51000       -2.40739        2.30715
H         -1.66851       -3.73835        2.40115
H         -0.22637       -3.96805        0.44292
H         -1.92522       -3.74167       -0.05436
H         -0.03025       -1.47620        0.13215
H         -0.07945       -2.37029       -1.20604
H         -2.95965       -1.87755        2.78138
H         -2.28475       -0.98820        1.58163
C         -1.41470       -2.83225        1.84203
C         -1.06603       -3.26909        0.42548
N         -2.55994       -1.93277        1.85218
N         -0.66165       -2.10449       -0.40318
