40
2msa1dma1eda_222.log	Energy: -1038018.3217155
S          0.79917        2.20905       -0.03504
O          1.09167        1.45318       -1.28396
O          1.94880        2.44056        0.83532
O         -0.34378        1.55363        0.70972
C          0.17434        3.79540       -0.56100
H          0.96560        4.29873       -1.11714
H         -0.69896        3.63235       -1.19328
H         -0.09106        4.36424        0.33045
S         -2.88691       -0.62612       -0.07617
O         -3.12667       -0.81312        1.34506
O         -1.99835       -1.60227       -0.73101
O         -2.41538        0.82530       -0.40235
H         -1.51533        1.12653        0.08031
C         -4.43261       -0.64151       -0.95178
H         -4.86405       -1.63329       -0.81346
H         -5.07778        0.12313       -0.52007
H         -4.23811       -0.44611       -2.00572
N          1.43641       -1.61989        1.88483
C          0.15318       -1.30765        2.52249
C          2.50809       -0.71662        2.31080
H          1.70070       -2.57424        2.10992
H         -0.14425       -0.29536        2.23621
H         -0.61721       -1.99963        2.17321
H          0.20544       -1.35702        3.61993
H          2.27238        0.30345        1.99411
H          2.64629       -0.71768        3.40252
H          3.43852       -1.01719        1.82510
H          1.51050       -3.03743       -1.65635
H          0.96863       -1.80600       -2.81113
H          3.37897       -1.86227       -2.93365
H          2.90141       -0.35810       -2.13969
H          4.14969       -2.65973       -0.86260
H          4.44766       -1.06096       -0.66127
H         -0.19631       -1.48604       -0.77713
H          1.19884       -1.45661        0.18238
C          1.51858       -1.96649       -1.87994
C          2.94420       -1.44460       -2.01423
N          0.80957       -1.25647       -0.79618
N          3.71654       -1.74479       -0.81243
H          0.87955       -0.22906       -0.95719
