35
2msa1ma1dma_76.log	Energy: -978628.2039227
S          0.98786       -1.68783       -0.33111
O          1.68687       -0.63828       -1.10069
O         -0.13251       -2.34398       -1.01368
O          0.59033       -1.16538        1.03565
H         -0.82188       -0.66006        1.25611
C          2.20257       -2.94806        0.02273
H          2.53509       -3.36478       -0.92840
H          3.03792       -2.48925        0.55282
H          1.73118       -3.71671        0.63522
S         -2.57862        0.15331        0.22282
O         -3.70123        0.94117        0.69071
O         -1.73933       -0.26399        1.48947
O         -1.67864        0.75764       -0.76994
H          0.03918        1.34195       -0.73440
C         -3.14658       -1.39043       -0.44309
H         -3.74565       -1.88496        0.32144
H         -3.75138       -1.15550       -1.31982
H         -2.26388       -1.97388       -0.71859
N          2.30716        1.19444        1.51079
H          2.29239        1.67295        2.40574
C          3.68346        0.89554        1.09871
H          4.23284        0.28197        1.82373
H          3.64426        0.36099        0.14643
H          4.23513        1.82832        0.95064
H          1.77696        0.32445        1.61424
N          0.72394        2.09998       -0.58097
C         -0.01430        3.27913       -0.08844
C          1.48987        2.33374       -1.82121
H          1.37602        1.76458        0.19687
H         -0.73671        3.59950       -0.83969
H         -0.54807        3.00231        0.82097
H          0.69437        4.08213        0.12368
H          0.81105        2.67439       -2.60506
H          2.24940        3.09549       -1.63344
H          1.95226        1.39066       -2.10906
