37
2msa1ma1eda_168.log	Energy: -1013362.6784192
S          1.31003       -1.63799       -0.56051
O          0.79094       -2.18710        0.69976
O          2.45555       -0.70376       -0.39925
O          0.23458       -0.98849       -1.39142
C          1.91267       -3.00067       -1.53843
H          2.71853       -3.48070       -0.98274
H          1.08744       -3.69512       -1.69707
H          2.27879       -2.60704       -2.48651
S         -2.47099       -0.21172        0.63889
O         -3.86304        0.18250        0.68174
O         -1.45278        0.83507        0.82339
O         -2.21905       -0.93485       -0.73635
H         -1.22454       -0.99678       -0.96768
C         -2.16118       -1.47904        1.84390
H         -2.29303       -1.02533        2.82698
H         -2.89049       -2.27347        1.68503
H         -1.13870       -1.83797        1.69937
N          0.09840        2.94575       -2.42493
H         -0.28276        3.88553       -2.37794
C         -0.97577        1.96359       -2.66078
H         -1.51650        2.12600       -3.59982
H         -0.54302        0.96049       -2.66643
H         -1.68904        2.00799       -1.83454
H          0.75762        2.93878       -3.19737
H          2.23619        3.15851        0.86342
H          0.52303        3.12950        1.37163
H          1.85588        2.27518        3.18508
H          0.94550        0.92478        2.49876
H          3.44248        0.63025        2.94917
H          2.97869        0.19485        1.44185
H          0.82765        2.28433       -0.91154
H          1.75166        0.99297       -0.28928
C          1.39429        2.51581        1.12986
C          1.77316        1.62653        2.30747
N          1.03403        1.70329       -0.05870
N          3.06158        0.98455        2.08019
H          0.16312        1.18312        0.14439
