42
2msa2eda_61.log	Energy: -1072768.9469316
S         -2.54908       -1.53348       -0.09456
O         -3.30315       -0.48495       -0.79409
O         -1.74606       -0.96705        1.05476
O         -1.69208       -2.38340       -0.95611
C         -3.74003       -2.62867        0.65892
H         -4.37375       -2.04016        1.32251
H         -4.33148       -3.07496       -0.14091
H         -3.20344       -3.39707        1.21547
S          2.29622        1.46584        0.02130
O          1.51712        1.00881        1.21899
O          1.96268        2.83156       -0.39487
O          2.17241        0.44932       -1.07389
C          4.00966        1.43693        0.51323
H          4.13158        2.11041        1.36168
H          4.27101        0.41060        0.77774
H          4.60418        1.77852       -0.33486
H         -0.45613        2.82341       -0.76886
H         -1.10016        1.22328       -1.18707
H         -2.72033        3.04813       -1.80342
H         -3.38016        1.89896       -0.63385
H         -2.41972        4.60753       -0.02096
H         -3.85433        3.92131        0.36458
H         -0.11782        1.58629        1.13087
H         -1.58356        2.42717        1.42271
C         -1.25178        2.10369       -0.56108
C         -2.64067        2.69308       -0.76846
N         -1.12157        1.69948        0.86540
N         -2.86710        3.73431        0.23858
H         -1.56716        0.77056        1.02689
H          2.22255       -2.02853        1.51440
H          1.18224       -3.41262        1.09025
H          3.32556       -3.91420        0.19886
H          2.33520       -3.45018       -1.18484
H          4.58689       -2.40196       -1.08677
H          3.43365       -1.23365       -1.02228
H          0.12754       -1.25561        0.71588
H          1.27787       -0.85266       -0.43302
C          1.75748       -2.57429        0.69075
C          2.82713       -3.06325       -0.27598
N          0.79465       -1.65429        0.03676
N          3.82704       -2.03266       -0.52704
H          0.16632       -2.12947       -0.63152
