32
2msa1a1dma_09.log	Energy: -953977.6735672
S          2.32322       -0.55637        0.16787
O          1.97628       -1.87456       -0.43338
O          1.47501       -0.18656        1.31820
O          2.37513        0.53222       -0.85714
H          1.11496        1.61262       -0.58718
C          3.98953       -0.74816        0.77198
H          3.98563       -1.53963        1.52143
H          4.63075       -1.01425       -0.06833
H          4.30210        0.19841        1.21313
S         -2.54266       -0.42712        0.21664
O         -3.87092        0.17419        0.20891
O         -1.57885        0.22991       -0.75104
O         -2.50547       -1.90443        0.00201
H         -1.20697       -2.31122       -0.93195
C         -1.82853       -0.16072        1.83362
H         -1.91439        0.90102        2.07158
H         -2.40708       -0.74709        2.54808
H         -0.78199       -0.47373        1.81562
N         -0.41929       -2.17683       -1.62444
H         -0.41691       -2.89129       -2.34549
H          0.51447       -2.12003       -1.13642
H         -0.62055       -1.25290       -2.01502
N          0.22823        2.14708       -0.41347
C         -0.01321        3.10367       -1.50948
C          0.27690        2.75680        0.93007
H         -0.52598        1.40857       -0.44301
H          0.77962        3.85350       -1.52310
H         -0.02061        2.55941       -2.45375
H         -0.98120        3.58523       -1.36205
H          1.05382        3.52338        0.95113
H         -0.69160        3.20732        1.15629
H          0.51668        1.96905        1.64459
