40
2msa1dma1eda_175.log	Energy: -1038023.6421424
S         -0.31771        2.20892       -0.15014
O         -0.56379        1.42994       -1.39596
O          1.10718        2.47713        0.09935
O         -0.98964        1.56682        1.02933
C         -1.12989        3.78137       -0.36579
H         -0.67173        4.28245       -1.21862
H         -2.18979        3.60069       -0.54566
H         -0.98672        4.35997        0.54684
S         -2.37793       -1.50971       -0.14081
O         -3.22444       -2.63447        0.19986
O         -0.93154       -1.71545       -0.23497
O         -2.67803       -0.36876        0.91056
H         -1.99613        0.38122        0.89462
C         -2.93089       -0.79788       -1.67555
H         -2.77014       -1.54584       -2.45321
H         -3.99257       -0.57209       -1.57589
H         -2.33771        0.10039       -1.86165
N          1.24006       -0.38698        1.82113
C          2.29856        0.40808        2.43769
C          1.03632       -1.68325        2.46254
H          0.37510        0.15396        1.84371
H          3.26170       -0.10051        2.31083
H          2.34013        1.38149        1.94406
H          2.13853        0.55817        3.51550
H          1.93914       -2.29262        2.34140
H          0.82916       -1.59208        3.53865
H          0.20430       -2.19593        1.97601
H          2.69942        0.21084       -2.42011
H          2.80692        1.03350       -0.85342
H          4.82014       -0.40227       -1.21812
H          3.86295       -1.00549        0.13705
H          3.93678       -2.19010       -2.53867
H          4.16636       -2.91582       -1.09113
H          0.63333        0.00188       -1.25198
H          1.37623       -1.50736       -1.23293
C          2.72623        0.05784       -1.33682
C          3.86560       -0.87536       -0.95052
N          1.44595       -0.54000       -0.91255
N          3.65093       -2.18463       -1.56540
H          1.37248       -0.53697        0.17115
