41
2msa1dma1tma_01.log	Energy: -1027961.1849045
S          2.73503       -0.68166        0.20886
O          2.20155       -1.95235        0.76020
O          3.09761        0.33066        1.21520
O          1.81187       -0.12092       -0.83776
C          4.23088       -1.11923       -0.66166
H          4.92951       -1.53977        0.06213
H          3.98232       -1.85358       -1.42781
H          4.64382       -0.21602       -1.11141
S         -2.98556        0.22564       -0.07738
O         -3.29387       -1.06413       -0.72659
O         -3.01633        1.40878       -0.95239
O         -1.68931        0.13881        0.69292
C         -4.24381        0.48093        1.16863
H         -5.20780        0.53753        0.66214
H         -4.22424       -0.35975        1.86261
H         -4.03255        1.41561        1.68886
N         -0.45598       -2.17747       -0.00773
C         -0.46305       -2.33627       -1.47907
C         -1.24661       -3.20018        0.70549
H          0.52820       -2.16801        0.33053
H         -1.48789       -2.21433       -1.83142
H          0.18304       -1.56415       -1.89643
H         -0.07423       -3.32500       -1.73137
H         -2.28458       -3.11393        0.38053
H         -0.84880       -4.19112        0.47915
H         -1.17469       -3.01134        1.77690
H         -0.86363       -1.23833        0.23321
N          0.92853        2.32826       -0.10974
C          2.21368        3.05277       -0.25870
H          2.94112        2.59599        0.41308
H          2.55286        2.95438       -1.29071
H          2.05908        4.10623       -0.01462
C         -0.10189        2.82098       -1.05900
H          0.27612        2.69301       -2.07439
H         -1.02710        2.25359       -0.93265
H         -0.28290        3.88035       -0.86139
C          0.45168        2.35017        1.29858
H         -0.46076        1.75365        1.35292
H          1.23073        1.90900        1.92173
H          0.26342        3.38772        1.58561
H          1.14238        1.32716       -0.35671
