34
2msa1a1eda_27.log	Energy: -988712.8527695
S          2.75750       -0.41510       -0.02280
O          3.09896        0.99788       -0.21636
O          2.50029       -1.17440       -1.28266
O          1.61666       -0.61828        0.93440
C          4.16773       -1.20133        0.73698
H          5.01062       -1.10476        0.05213
H          4.37687       -0.69119        1.67736
H          3.93221       -2.25121        0.91126
S         -2.61337       -0.62243        0.16098
O         -2.25240       -0.76639       -1.27786
O         -2.55616        0.79781        0.61610
O         -1.82615       -1.52647        1.03011
C         -4.32596       -1.09417        0.30326
H         -4.91489       -0.43711       -0.33668
H         -4.42135       -2.13169       -0.01734
H         -4.62084       -0.98359        1.34680
N          0.04390       -2.25038       -0.99307
H         -0.10310       -2.17358        0.02249
H          0.99171       -1.84811       -1.22302
H         -0.02626       -3.22048       -1.28490
H         -0.74078       -1.69451       -1.39484
H          0.08748        3.57260        0.93521
H          1.59614        2.62643        0.67390
H          0.81136        3.09382       -1.48398
H          0.35107        1.42305       -1.20501
H         -1.39889        2.97202       -2.15381
H         -1.90403        2.20508       -0.80342
H          0.04846        1.72409        2.38641
H         -1.01788        1.28945        1.17227
C          0.51145        2.63938        0.55903
C          0.13353        2.46073       -0.90518
N         -0.01924        1.51477        1.39288
N         -1.23744        2.88859       -1.15682
H          0.55545        0.65036        1.21905
