26
2msa2a_88.log	Energy: -904632.7197487
S          1.57589       -0.83503       -0.18215
O          3.00315       -1.26882       -0.19179
O          1.22767        0.03036       -1.33329
O          1.22520       -0.19276        1.12774
H          2.77347        0.61854        1.73030
C          0.58503       -2.30628       -0.30677
H          0.81867       -2.78370       -1.25868
H          0.84517       -2.95909        0.52651
H         -0.46807       -2.02190       -0.26318
S         -2.97919        0.18135       -0.04024
O         -3.95403        0.72883       -0.97154
O         -2.61955       -1.22080       -0.09822
O         -3.55285        0.48698        1.45652
H         -4.46764        0.78679        1.35773
C         -1.50741        1.16384       -0.01793
H         -0.98795        0.98885       -0.96275
H         -1.79549        2.20847        0.09601
H         -0.86579        0.81918        0.79619
N          3.74034        0.78456        1.38546
H          4.40429        1.01783        2.11591
H          3.66246        1.51773        0.61241
H          3.94183       -0.11199        0.90012
N          3.17440        2.29338       -0.87652
H          3.88850        2.34994       -1.59638
H          2.73017        3.20461       -0.82148
H          2.46764        1.62224       -1.20427
