34
2msa1a1eda_35.log	Energy: -988712.7447939
S          2.36048       -1.08953       -0.10258
O          2.81130        0.07042       -0.89462
O          1.97103       -2.27507       -0.91833
O          1.27119       -0.73662        0.86034
C          3.75275       -1.60564        0.88650
H          4.56357       -1.87818        0.21054
H          4.04354       -0.76979        1.52348
H          3.45121       -2.46103        1.49120
S         -2.99552       -0.07420        0.20543
O         -2.72183        1.17435        0.94079
O         -3.02754       -1.30791        1.00721
O         -2.02709       -0.22830       -0.95833
C         -4.60113        0.11275       -0.54908
H         -5.33010        0.23692        0.25231
H         -4.58210        0.99350       -1.19094
H         -4.81833       -0.78491       -1.12808
N         -0.66358       -2.49606       -0.25382
H         -1.20067       -3.35317       -0.34369
H         -0.57911       -2.24108        0.73190
H          0.30974       -2.56756       -0.63894
H         -1.18464       -1.69944       -0.69371
H          1.27828        1.83179       -1.58605
H         -0.04851        3.02233       -1.52474
H          2.12568        4.00579       -0.84122
H          0.94228        4.07665        0.47068
H          2.95211        1.93522        0.28307
H          2.98696        3.20234        1.35161
H         -0.70349        0.90085       -0.58230
H          0.57004        0.91139        0.48611
C          0.67252        2.45932       -0.92840
C          1.56356        3.39187       -0.11985
N         -0.07354        1.53176       -0.04627
N          2.38576        2.61247        0.79055
H         -0.69881        1.99609        0.61849
