35
2msa1ma1dma_300.log	Energy: -978613.7417998
S          2.41380       -0.42963       -0.34468
O          2.07996       -1.59729        0.46823
O          2.38066        0.86792        0.32953
O          1.54404       -0.39949       -1.65101
H          0.53860       -0.48054       -1.40674
C          4.01848       -0.65153       -1.07247
H          4.74046       -0.65740       -0.25554
H          4.02540       -1.60197       -1.60502
H          4.20726        0.18124       -1.74943
S         -2.12796       -0.04773       -1.07898
O         -2.66127       -0.37179       -2.39363
O         -0.77041       -0.64328       -0.79041
O         -3.01024       -0.41202        0.07796
H         -2.12187       -1.09589        1.16305
C         -1.90063        1.71678       -0.97611
H         -1.22822        2.01462       -1.78240
H         -2.87635        2.18673       -1.10450
H         -1.46731        1.95433        0.00007
N          0.20699        2.70371        1.53245
H          0.39328        2.83557        2.52146
C          0.30824        3.98614        0.83654
H          1.28344        4.48320        0.93907
H          0.12758        3.82919       -0.23082
H         -0.46493        4.66806        1.20312
H          0.92189        2.06855        1.18114
N         -1.54395       -1.50635        1.96941
C         -0.58400       -0.47264        2.43206
C         -0.89346       -2.76618        1.53045
H         -2.21626       -1.70415        2.70941
H          0.16901       -0.34613        1.65675
H         -1.11395        0.46987        2.57274
H         -0.11064       -0.80310        3.35834
H         -0.18906       -2.51674        0.73799
H         -0.36568       -3.21435        2.37416
H         -1.66110       -3.44274        1.15444
