37
2msa1ma1eda_564.log	Energy: -1013343.5425933
S          1.78208       -0.44075        0.44214
O          0.72374       -0.33809        1.44731
O          2.95435       -1.25228        0.76956
O          2.25442        1.00863        0.07569
H          3.33102        1.07277        0.11046
C          1.06369       -1.02159       -1.07231
H          0.64656       -2.01705       -0.89728
H          0.27866       -0.31642       -1.35455
H          1.85178       -1.06380       -1.82444
S         -2.30279        1.75124       -0.34484
O         -3.11883        2.80229       -0.91939
O         -1.51970        0.89368       -1.23761
O         -3.23480        0.85944        0.55618
H         -2.77129       -0.02002        0.91579
C         -1.16319        2.47283        0.82136
H         -0.50903        3.13799        0.25647
H         -1.73728        3.03225        1.55996
H         -0.57361        1.67638        1.27943
N          4.79797        1.02334        0.15021
H          5.24265        1.91033        0.36692
C          5.30483        0.46334       -1.11234
H          6.38977        0.32038       -1.10947
H          4.82236       -0.50246       -1.27427
H          5.03459        1.13109       -1.93278
H          4.98406        0.38193        0.91802
H         -0.97658       -2.93097        0.94282
H         -2.69256       -3.19614        1.25430
H         -3.33225       -2.12244       -0.80418
H         -1.76286       -1.36174       -0.98506
H         -2.18236       -4.26291       -1.21603
H         -1.81841       -3.22753       -2.42032
H         -2.42047       -1.35965        2.50745
H         -1.10616       -0.84920        1.67951
C         -1.97311       -2.48694        0.83083
C         -2.25315       -2.28030       -0.65573
N         -2.05613       -1.21152        1.57168
N         -1.70113       -3.39380       -1.42678
