32
2msa1a1dma_70.log	Energy: -953965.5217522
S         -0.92717        1.83191       -0.02310
O         -2.16520        2.48699        0.34677
O         -0.96149        0.90852       -1.16787
O         -0.41714        1.05820        1.25427
H          0.34124        0.39424        1.06615
C          0.34362        3.03090       -0.32922
H          0.05318        3.58258       -1.22409
H          0.39101        3.69159        0.53645
H          1.28407        2.49286       -0.47746
S          2.53075       -0.54393       -0.05833
O          2.74579        0.88418       -0.31633
O          2.44105       -1.42447       -1.23399
O          1.30644       -0.75975        0.83354
H          0.20041       -1.67001       -0.19834
C          3.89838       -1.11363        0.93461
H          4.80865       -0.97991        0.34939
H          3.93480       -0.51469        1.84457
H          3.74205       -2.16693        1.16711
N         -0.45245       -1.81417       -0.99671
H          0.00752       -2.41553       -1.67470
H         -0.57560       -0.86548       -1.38251
H         -1.40103       -2.15459       -0.66247
N         -2.99643       -2.18957        0.07796
C         -3.82637       -1.28048       -0.72048
C         -2.78364       -1.69039        1.44117
H         -3.44751       -3.09811        0.12412
H         -3.29980       -0.32989       -0.84645
H         -3.99730       -1.71471       -1.70897
H         -4.79771       -1.07482       -0.24986
H         -2.22931       -0.74822        1.40123
H         -3.72708       -1.50629        1.97336
H         -2.19026       -2.41145        2.00909
