40
2msa1dma1eda_259.log	Energy: -1038019.8206160
S         -0.02878        2.10603        0.08548
O         -1.12728        2.98883       -0.26611
O          0.67365        1.68526       -1.24836
O         -0.36111        0.90790        0.87307
H         -0.42740       -0.77503        0.47473
C          1.22617        2.98730        0.97593
H          1.53332        3.83861        0.36842
H          0.78429        3.31825        1.91630
H          2.05095        2.28978        1.14774
S          2.95559       -0.74350        0.05050
O          2.36005       -1.95813        0.66856
O          3.19834        0.37344        0.96998
O          2.14266       -0.33026       -1.15329
H          1.31772        0.87565       -1.15275
C          4.52993       -1.25341       -0.61076
H          5.14164       -1.60263        0.22138
H          4.36006       -2.05432       -1.33003
H          4.99023       -0.39009       -1.09138
N         -0.34601       -1.77512        0.21656
C         -0.69972       -1.90238       -1.21724
C         -1.17357       -2.59630        1.12850
H          0.66776       -1.98606        0.36008
H         -1.66203       -1.41312       -1.38476
H          0.08190       -1.41011       -1.79592
H         -0.74908       -2.96121       -1.47689
H         -2.23178       -2.38694        0.94103
H         -0.96324       -3.65012        0.93620
H         -0.90073       -2.35352        2.15609
H         -5.68255       -0.27831       -0.07638
H         -5.02153       -0.70576        1.50669
H         -4.09183        1.41736        0.70550
H         -2.82138        0.20885        0.88874
H         -4.04477        0.93140       -1.67155
H         -2.54159        1.28143       -1.17528
H         -4.99061       -2.59789       -0.00521
H         -3.98684       -1.78185       -1.01201
C         -4.76687       -0.60453        0.44640
C         -3.70193        0.47394        0.29537
N         -4.26478       -1.89020       -0.04039
N         -3.27721        0.58261       -1.10282
