41
2msa1dma1tma_69.log	Energy: -1027941.3815465
S         -2.43656        0.98028       -0.47565
O         -3.57577        1.80502       -0.82321
O         -1.27323        1.61806        0.14897
O         -1.98798        0.23555       -1.79103
H         -1.11444       -0.26152       -1.68282
C         -2.95388       -0.33914        0.59727
H         -3.39322        0.12807        1.48048
H         -3.70339       -0.92942        0.06952
H         -2.07516       -0.93876        0.87269
S          1.50964       -0.67686       -1.29007
O          0.14014       -1.19843       -1.56107
O          2.06931       -1.18428       -0.01649
O          1.58149        0.80690       -1.38614
H          1.29506        1.49247        0.15155
C          2.53108       -1.30932       -2.60607
H          2.48223       -2.39791       -2.57626
H          2.13866       -0.93036       -3.54979
H          3.55185       -0.96326       -2.44344
N         -0.44249       -2.34705        1.43872
C         -1.08582       -3.41180        0.68539
C         -0.13766       -2.73081        2.80493
H          0.40836       -2.06724        0.95567
H         -2.08275       -3.60753        1.09992
H         -1.19682       -3.09631       -0.35486
H         -0.52382       -4.36158        0.70313
H         -1.06924       -2.91345        3.35348
H          0.47950       -3.64340        2.88093
H          0.39252       -1.91816        3.31195
N          1.55589        1.87436        1.09631
C          0.94730        0.99984        2.13359
H         -0.13361        1.02458        2.00882
H          1.31180       -0.01375        1.96762
H          1.24406        1.36837        3.11860
C          3.03775        1.80108        1.13953
H          3.32589        0.75860        1.00109
H          3.44120        2.40171        0.32441
H          3.38762        2.18072        2.10223
C          1.06129        3.27062        1.17566
H          1.49860        3.84011        0.35494
H         -0.02262        3.25619        1.07236
H          1.36239        3.70053        2.13380
