34
2msa1a1eda_165.log	Energy: -988700.2719827
S         -2.57592        0.61572       -0.13569
O         -2.64132        1.07034        1.24463
O         -2.37009       -0.92735       -0.21190
O         -1.61396        1.29667       -1.01830
C         -4.18980        0.77502       -0.86015
H         -4.45329        1.83241       -0.82639
H         -4.14570        0.41305       -1.88672
H         -4.88537        0.18491       -0.26370
S          1.04905       -2.07122       -0.04499
O          0.65422       -2.34390        1.33881
O          2.19954       -1.13940       -0.20228
O         -0.09441       -1.59314       -0.90731
H         -1.38886       -1.22232       -0.45083
C          1.56235       -3.61406       -0.77399
H          2.43331       -3.96863       -0.22233
H          0.73775       -4.32159       -0.68578
H          1.81160       -3.43599       -1.81986
N          0.12090        0.42798        2.67899
H          0.29243       -0.54767        2.43667
H         -0.86661        0.61197        2.51526
H          0.28949        0.52773        3.67444
H          1.01536        3.15466        0.18590
H          1.15063        1.71283        1.23679
H          3.30598        3.01678        1.21080
H          3.50641        1.40491        0.51638
H          3.38958        3.91278       -0.98726
H          4.46674        2.68875       -1.10981
H          0.17088        1.25736       -0.96720
H          1.65228        1.70670       -1.66024
C          1.53008        2.19974        0.32876
C          3.04008        2.38204        0.35592
N          1.19356        1.32897       -0.82710
N          3.49246        2.90478       -0.93750
H          1.57086        0.36504       -0.65833
