43
2msa1eda1tma_20.log	Energy: -1062691.6479651
S         -2.88807       -0.34008        0.13423
O         -2.79158       -1.79738       -0.18340
O         -2.78651        0.53863       -1.04162
O         -1.92343        0.03437        1.21395
C         -4.51716       -0.12623        0.82931
H         -5.24638       -0.43563        0.08044
H         -4.59396       -0.74480        1.72337
H         -4.64538        0.92789        1.07641
S          3.12722        0.03508        0.08548
O          2.72616        0.76078       -1.13778
O          3.22550       -1.43083       -0.07329
O          2.25958        0.42271        1.25116
C          4.76824        0.59676        0.51928
H          5.44155        0.33112       -0.29617
H          4.73950        1.67788        0.65782
H          5.06728        0.09802        1.44143
H          0.98569        2.63552       -1.06577
H         -0.29648        1.46134       -1.38925
H         -1.08201        3.77561       -1.90825
H         -2.03694        2.98448       -0.65281
H         -0.02885        5.08096       -0.21095
H         -1.57395        5.01986        0.32069
H          0.95781        1.33296        0.85779
H          0.01477        2.70579        1.22773
C         -0.01258        2.30944       -0.76655
C         -1.05522        3.41429       -0.87236
N          0.06628        1.86219        0.64667
N         -0.75860        4.45577        0.11498
H         -0.73703        1.24089        0.88755
N         -0.23417       -2.60102       -0.25165
C          0.38819       -2.40394        1.08710
H          0.10766       -1.41504        1.44767
H         -0.00359       -3.16601        1.76246
H          1.47331       -2.46475        0.98722
C         -0.07501       -3.98903       -0.73701
H         -0.52075       -4.67369       -0.01462
H         -0.58162       -4.08992       -1.69755
H          0.98953       -4.20346       -0.85015
C          0.27683       -1.62136       -1.24776
H         -0.31264       -1.71536       -2.16024
H          0.14813       -0.62326       -0.83426
H          1.33891       -1.79526       -1.41997
H         -1.26306       -2.38964       -0.16027
