42
2msa2eda_343.log	Energy: -1072753.8360455
S         -1.36019       -2.09918       -0.44448
O         -1.84406       -2.00545        0.94120
O         -0.53342       -3.24855       -0.79377
O         -0.67265       -0.77410       -0.81558
C         -2.80498       -2.11872       -1.49666
H         -3.36125       -3.02946       -1.27229
H         -3.40772       -1.23645       -1.27603
H         -2.47589       -2.12229       -2.53644
S          2.47994        0.28382       -0.80288
O          3.04975       -0.64025        0.17208
O          1.76161        1.44462       -0.26687
O          1.58393       -0.46870       -1.84297
H          0.65169       -0.69699       -1.44169
C          3.77184        0.84745       -1.88270
H          4.24037       -0.02500       -2.33731
H          3.33448        1.50043       -2.63703
H          4.48526        1.39157       -1.26317
H         -0.55523        0.65583        3.69607
H         -1.38198       -0.67015        2.80961
H          0.71550       -1.49276        3.90919
H          0.79531       -1.61697        2.15699
H          2.41835        0.04020        3.83342
H          2.61772       -0.33504        2.23332
H         -1.11357        1.49331        1.53365
H          0.55476        1.13744        1.54237
C         -0.48520       -0.05282        2.86619
C          0.77659       -0.90346        2.98753
N         -0.38946        0.73319        1.61371
N          1.95255       -0.03904        2.93995
H         -0.51419        0.12513        0.78172
H         -2.79309        4.11902       -0.44942
H         -1.19690        4.17986        0.32122
H         -1.09282        3.27793       -2.00037
H         -0.49223        2.13358       -0.81467
H         -2.84349        1.84958       -2.43502
H         -1.91483        0.71070       -1.67525
H         -2.90568        3.17632        1.76065
H         -3.09931        1.98317        0.64647
C         -1.97307        3.50295       -0.05151
C         -1.40108        2.62983       -1.16951
N         -2.42644        2.63786        1.04656
N         -2.37193        1.61155       -1.57176
