42
2msa2eda_539.log	Energy: -1072743.9321451
S          1.00461        2.28077       -0.31700
O          1.58960        2.45399        1.02368
O         -0.31574        2.90978       -0.51372
O          0.97665        0.82973       -0.72744
C          2.12622        3.05589       -1.47497
H          1.73679        2.91221       -2.48333
H          2.17757        4.11810       -1.23377
H          3.10750        2.59266       -1.36596
S         -2.60473       -0.58119       -0.69566
O         -1.46865       -1.43576       -0.41107
O         -3.38706       -0.01880        0.39898
O         -3.63649       -1.47496       -1.58355
H         -4.52065       -1.36920       -1.20467
C         -2.15095        0.68873       -1.83780
H         -1.50347        1.39870       -1.30740
H         -1.61394        0.22061       -2.66239
H         -3.06658        1.17431       -2.17537
H          1.00283       -0.71042        3.54160
H          1.54365        0.72871        2.61202
H         -0.57701        1.21097        3.85483
H         -0.78060        1.32697        2.11368
H         -1.91264       -0.69296        3.85502
H         -2.45445       -0.14503        2.39454
H          1.47874       -1.52145        1.36685
H         -0.20770       -1.29751        1.44394
C          0.76490       -0.02739        2.72078
C         -0.60178        0.62098        2.93117
N          0.70289       -0.82000        1.47081
N         -1.63279       -0.41437        2.92363
H          0.75389       -0.19188        0.63293
H          3.25842       -3.90077       -0.83036
H          1.63188       -4.03902       -0.13307
H          1.66313       -2.87515       -2.35847
H          0.96118       -1.89517       -1.08406
H          3.34572       -1.33762       -2.54088
H          2.42804       -0.35258       -1.57458
H          3.30199       -3.20577        1.46495
H          3.51400       -1.89464        0.49354
C          2.42325       -3.32975       -0.39842
C          1.90183       -2.33109       -1.43574
N          2.83627       -2.59237        0.80438
N          2.87740       -1.26228       -1.64772
