37
2msa1ma1eda_482.log	Energy: -1013349.7167405
S         -2.16865       -1.47098        0.09503
O         -2.76501       -0.91072       -1.13142
O         -2.40490       -0.69376        1.30986
O         -0.65310       -1.74308       -0.11635
H         -0.15130       -0.82727       -0.35078
C         -2.77300       -3.12395        0.30653
H         -2.54984       -3.68950       -0.59750
H         -2.28100       -3.55754        1.17675
H         -3.84894       -3.05008        0.46608
S          0.76658        1.51190        0.24580
O          2.10326        2.02263       -0.04930
O          0.34479        0.41155       -0.70825
O         -0.30370        2.55758        0.26138
H         -1.56027        2.14490       -0.57351
C          0.78719        0.77594        1.86392
H          1.58889        0.02966        1.86407
H          1.00562        1.57159        2.57745
H         -0.19379        0.33852        2.05925
N         -2.49154        1.88809       -1.03472
H         -2.57571        2.41114       -1.90329
C         -3.59961        2.17527       -0.09373
H         -4.55455        1.94029       -0.56363
H         -3.45482        1.54477        0.78345
H         -3.56215        3.22632        0.19120
H         -2.47745        0.87478       -1.25372
H          5.28959       -1.31768       -0.05552
H          4.14700       -2.42175        0.74439
H          3.65708       -2.28694       -1.60931
H          2.32035       -1.57286       -0.68941
H          3.17939       -0.31417       -2.69289
H          3.11665        0.58013       -1.34209
H          4.42491       -0.41286        2.02291
H          3.85613        0.50146        0.79949
C          4.24221       -1.44320        0.25904
C          3.37077       -1.42911       -0.99011
N          3.80623       -0.42487        1.21869
N          3.58835       -0.21338       -1.77083
