38
2msa2dma_102.log	Energy: -1003282.6184676
S         -0.03589       -1.87982       -0.07478
O          1.20301       -2.53927       -0.56949
O         -0.81117       -1.18744       -1.11597
O          0.29668       -0.98319        1.08653
H         -0.03755        0.51210        1.13932
C         -1.07557       -3.16301        0.59003
H         -1.31644       -3.85398       -0.21801
H         -0.53495       -3.67088        1.38851
H         -1.98004       -2.68959        0.97477
S          0.33060        2.35282        0.02364
O          0.33518        3.74290        0.42090
O         -0.20779        1.50970        1.24229
O          1.60707        1.76267       -0.42767
H          2.40422        0.27547       -0.21071
C         -0.86643        2.07816       -1.25601
H         -1.85892        2.29569       -0.85811
H         -0.60834        2.74466       -2.07990
H         -0.80603        1.02879       -1.55055
N         -3.46738        0.19113       -0.27483
C         -4.62271       -0.48222       -0.83886
C         -3.50484        0.25047        1.17536
H         -2.61996       -0.28255       -0.57743
H         -5.52718        0.10535       -0.64389
H         -4.50545       -0.57213       -1.92205
H         -4.78882       -1.49429       -0.42376
H         -4.34884        0.87118        1.49722
H         -3.62383       -0.73979        1.65647
H         -2.58807        0.71047        1.55208
N          3.03810       -0.54834       -0.14214
C          3.50514       -0.65707        1.25709
C          4.11096       -0.39924       -1.14563
H          2.43888       -1.37922       -0.36440
H          4.03559        0.25635        1.52983
H          2.62560       -0.78775        1.88739
H          4.16681       -1.51969        1.34883
H          4.67369        0.51142       -0.93614
H          4.77104       -1.26688       -1.10394
H          3.65506       -0.32786       -2.13288
