42
2msa2eda_592.log	Energy: -1072739.1031648
S         -2.33145       -1.46434        0.46868
O         -2.48302       -2.75576        1.12047
O         -2.03918       -1.44822       -0.96163
O         -1.22427       -0.59824        1.22990
H         -0.30636       -0.95911        1.01717
C         -3.74592       -0.45130        0.80627
H         -4.60067       -0.97621        0.37665
H         -3.85536       -0.37208        1.88795
H         -3.61357        0.52647        0.32702
S          1.80238       -1.45096       -0.63895
O          1.16801       -1.44045        0.71819
O          3.24176       -1.73396       -0.58001
O          1.53114       -0.15234       -1.35779
H          2.68126        0.82515       -0.88298
C          0.97442       -2.70985       -1.57693
H          1.12306       -3.65691       -1.05754
H         -0.08587       -2.45086       -1.62435
H          1.42430       -2.73583       -2.56949
H          3.41778        3.09195        0.93253
H          1.99977        2.99163       -0.15180
H          1.51693        2.37675        2.30845
H          1.04409        1.16524        1.11952
H          3.02291        0.85179        3.13651
H          2.38080       -0.27394        2.10046
H          4.09401        1.79891       -0.94116
H          3.81627        0.75078        0.34737
C          2.67217        2.42347        0.49434
C          1.90422        1.65663        1.58107
N          3.38501        1.41053       -0.32522
N          2.78511        0.65685        2.17369
H         -2.19712        4.19831       -1.03822
H         -2.76097        3.70287        0.56712
H         -0.37079        3.29064        0.38153
H         -1.23019        1.74563        0.49708
H         -0.00479        2.80245       -1.94076
H          0.01884        1.25005       -1.33867
H         -4.16515        2.84994       -1.29596
H         -2.89033        1.90926       -1.73736
C         -2.37855        3.32427       -0.38840
C         -1.05125        2.60613       -0.15530
N         -3.33666        2.37836       -0.95098
N         -0.51911        2.10819       -1.41406
