40
2msa1dma1eda_375.log	Energy: -1038015.4542106
S          1.89580       -1.60555       -0.38088
O          3.25280       -2.09453       -0.28668
O          1.26449       -1.10906        0.86094
O          0.99334       -2.77318       -0.94110
H         -0.02180       -2.53944       -0.88592
C          1.77090       -0.31967       -1.59065
H          2.30616        0.54838       -1.18195
H          2.21241       -0.68962       -2.51616
H          0.71657       -0.05521       -1.71173
S         -1.89153        1.50619       -0.26484
O         -1.43755        0.69120       -1.42169
O         -0.79554        2.10075        0.51787
O         -2.83175        0.71366        0.60359
H         -1.91665       -0.28340        1.47005
C         -2.86842        2.84009       -0.92947
H         -2.22427        3.43258       -1.57959
H         -3.69810        2.41259       -1.49215
H         -3.23154        3.44144       -0.09609
N          2.27643        2.24039        0.28944
C          2.48158        3.62591       -0.09415
C          2.97420        1.88805        1.51503
H          1.27782        2.07783        0.40615
H          3.53954        3.79183       -0.32867
H          1.89751        3.84921       -0.99150
H          2.19454        4.34698        0.69189
H          4.05575        1.97407        1.35983
H          2.70593        2.53252        2.37191
H          2.75274        0.84950        1.77414
H         -3.31630       -1.88566        0.23883
H         -2.72303       -3.55171        0.11995
H         -2.39828       -2.68452        2.36099
H         -0.82982       -3.05560        1.60645
H         -1.07228       -0.85400        2.83009
H         -0.30839       -0.86834        1.36636
H         -1.91624       -2.57617       -1.75630
H         -1.57253       -1.13764       -1.08173
C         -2.41390       -2.50804        0.22457
C         -1.70262       -2.39887        1.56901
N         -1.54680       -2.15420       -0.90868
N         -1.23177       -1.01209        1.83742
