34
2msa1a1eda_313.log	Energy: -988688.2685047
S          1.30454        0.53285       -0.59591
O          1.85973        1.78523       -0.04605
O          0.89099       -0.44245        0.44417
O          2.26356       -0.12944       -1.56163
H          3.11664       -1.03805       -0.68016
C         -0.12706        0.95393       -1.56135
H         -0.84715        1.43857       -0.90120
H          0.19180        1.63105       -2.35399
H         -0.55861        0.03999       -1.97011
S         -3.23674       -0.74894       -0.01568
O         -2.78705       -1.13706       -1.34043
O         -4.60278       -1.08421        0.39178
O         -3.04380        0.82082        0.15773
H         -3.94022        1.26471        0.38946
C         -2.09075       -1.38077        1.18235
H         -2.13650       -2.46856        1.11212
H         -1.08711       -1.01809        0.93754
H         -2.40719       -1.04374        2.16944
N         -5.45097        1.75036        0.72233
H         -5.60658        2.23457        1.59999
H         -5.88924        0.83210        0.77256
H         -5.89987        2.27925       -0.01811
H          5.67072       -1.41664        0.87987
H          5.52911       -1.02125       -0.85527
H          5.91308        1.02281        0.63642
H          4.44252        1.11280       -0.34328
H          4.56261        1.06567        2.48542
H          3.25518        1.27970        1.48209
H          3.70957       -2.49746        0.03864
H          3.24410       -1.19289        0.98324
C          5.07522       -0.88960        0.12930
C          4.91626        0.59225        0.49465
N          3.71592       -1.48392        0.11127
N          4.07290        0.70425        1.67875
