37
2msa1ma1eda_56.log	Energy: -1013371.2382508
S         -2.35145       -1.39603       -0.36185
O         -2.95460       -2.71640       -0.21727
O         -1.39655       -1.05012        0.76596
O         -3.30412       -0.26699       -0.55353
H         -2.70562        1.16719        0.22498
C         -1.33460       -1.41922       -1.83359
H         -0.67357       -2.28597       -1.78063
H         -2.00226       -1.51683       -2.69037
H         -0.75741       -0.49292       -1.88596
S          1.31755        1.92401       -0.40751
O          0.11934        2.76164       -0.12640
O          1.09521        0.89988       -1.44721
O          1.90108        1.33874        0.83910
H          1.53012       -0.30080        1.01175
C          2.53947        3.06354       -1.03214
H          2.14104        3.51746       -1.93958
H          2.72295        3.82065       -0.26971
H          3.45016        2.50473       -1.24869
N         -2.10722        1.63638        0.94184
H         -1.74361        0.81969        1.44817
C         -2.84560        2.58237        1.79625
H         -2.17475        2.98159        2.55704
H         -3.21798        3.39981        1.17930
H         -3.68385        2.06967        2.26824
H         -1.28163        2.08410        0.47444
H          1.41709       -2.92401       -0.36019
H          1.69739       -1.30811       -1.07088
H          3.85599       -2.56454       -0.80549
H          3.81355       -1.09895        0.18221
H          3.48596       -3.83218        1.18088
H          4.47875       -2.65214        1.72589
H          0.19662       -1.32876        0.89822
H          1.57645       -1.79146        1.80808
C          1.88835       -1.94824       -0.20745
C          3.37925       -2.09703        0.06585
N          1.24845       -1.31143        0.96613
N          3.56919       -2.83041        1.31823
