32
2msa1a1dma_128.log	Energy: -953957.2726194
S         -1.04998        1.14975        0.04722
O         -2.31820        1.73620       -0.33455
O          0.03775        2.07617        0.42530
O         -0.56102        0.26642       -1.16580
H          0.41118       -0.01744       -1.08248
C         -1.27195       -0.00691        1.36653
H         -1.57157        0.57090        2.24251
H         -2.06656       -0.69979        1.05808
H         -0.31780       -0.51399        1.53289
S          2.62720       -0.86979        0.15222
O          1.93874       -0.30847       -1.06638
O          1.68870       -1.37592        1.15496
O          3.61144        0.13464        0.65996
H          3.11716        1.58323        0.12876
C          3.59309       -2.24944       -0.42692
H          4.28756       -1.89623       -1.18873
H          4.13097       -2.65829        0.42865
H          2.90603       -2.98950       -0.83756
N          2.60151        2.36056       -0.38401
H          2.62896        2.11905       -1.37331
H          3.00459        3.27818       -0.21907
H          1.59927        2.32286       -0.07776
N         -3.95869       -1.48138        0.17984
C         -3.79676       -1.39452       -1.26634
C         -4.88861       -0.48639        0.69751
H         -4.27418       -2.41122        0.43340
H         -3.37585       -0.41742       -1.51912
H         -3.09458       -2.16041       -1.60567
H         -4.74557       -1.51179       -1.81760
H         -4.46814        0.51059        0.53102
H         -5.88151       -0.52271        0.21741
H         -5.01912       -0.62821        1.77432
