37
2msa1ma1eda_581.log	Energy: -1013342.3422241
S         -2.14915       -1.36687       -0.12291
O         -3.40708       -0.99602       -0.74620
O         -1.79083       -0.74875        1.14920
O         -0.94708       -1.18085       -1.15270
H         -0.57481       -0.23446       -1.14515
C         -2.07643       -3.13451        0.05324
H         -2.89140       -3.41106        0.72318
H         -2.21944       -3.58564       -0.92857
H         -1.10924       -3.39912        0.48422
S          1.14715        1.66941       -0.30108
O          0.09812        1.15512       -1.21999
O          2.47822        1.80031       -0.94709
O          1.25722        0.83426        0.94760
H          2.60458        0.08144        0.85500
C          0.61056        3.27728        0.21392
H          0.51950        3.89235       -0.68213
H         -0.35845        3.15546        0.71901
H          1.36718        3.68265        0.88640
N         -2.31841        2.35310        1.25283
H         -2.05949        1.38593        1.43793
C         -2.98138        2.43672       -0.05077
H         -3.86444        1.79253       -0.15298
H         -3.27732        3.47319       -0.24265
H         -2.26778        2.14642       -0.82749
H         -2.95673        2.62994        1.99103
H          3.17056       -2.76934        1.36977
H          2.85551       -3.49631       -0.19207
H          4.48634       -1.78262       -0.59662
H          2.94843       -1.17130       -1.24288
H          4.22410       -0.34649        1.28027
H          3.82525        0.57858       -0.07323
H          1.06473       -1.59566        1.19196
H          0.82236       -2.16875       -0.30549
C          2.70776       -2.58163        0.39223
C          3.47331       -1.46709       -0.33096
N          1.28754       -2.37186        0.57503
N          3.57530       -0.23774        0.50381
