42
2msa2eda_444.log	Energy: -1072750.3288825
S          1.53173        2.26565        0.00907
O          1.83862        3.64919        0.29557
O          1.51146        1.31818        1.14039
O          2.59049        1.73872       -1.03959
H          2.51003        0.71012       -1.17386
C         -0.01956        2.12647       -0.83444
H         -0.81584        2.37854       -0.12291
H          0.00242        2.80571       -1.68692
H         -0.14782        1.08491       -1.14083
S         -0.87965       -1.98995        0.06669
O         -0.57109       -1.15678       -1.13087
O         -1.16758       -1.19103        1.27347
O          0.22813       -2.97364        0.32165
H          1.30854       -2.06336        1.15751
C         -2.33549       -2.92933       -0.32968
H         -2.12396       -3.53282       -1.21264
H         -2.57512       -3.55971        0.52681
H         -3.12857       -2.20172       -0.52514
H          2.64947       -2.81020       -0.74169
H          4.10484       -1.87603       -1.13127
H          3.89945       -2.16788        1.26746
H          3.78412       -0.44123        0.84962
H          2.10063       -1.37473        2.48890
H          1.56338       -0.37818        1.29289
H          2.50090       -0.95721       -2.44691
H          1.30605       -1.02138       -1.34822
C          3.10468       -1.81422       -0.69360
C          3.29081       -1.41250        0.76571
N          2.31448       -0.83571       -1.45515
N          1.98778       -1.31431        1.47917
H         -3.60920        2.31809       -1.09092
H         -5.11687        1.40379       -0.88759
H         -4.39679        2.37956        1.21189
H         -4.38609        0.60858        1.30938
H         -2.38096        1.94264        2.17840
H         -2.03680        0.65206        1.24983
H         -3.66028        0.09772       -2.18557
H         -2.45145        0.18037       -1.10497
C         -4.04597        1.40547       -0.65335
C         -3.88250        1.47836        0.85981
N         -3.46518        0.17615       -1.19300
N         -2.47213        1.57508        1.23797
