35
2msa1ma1dma_322.log	Energy: -978613.6789735
S         -2.26391        0.74181        0.33166
O         -1.82255       -0.11525        1.43623
O         -2.48608        0.08508       -0.95121
O         -1.30243        1.97105        0.17817
H         -0.31905        1.66169        0.03701
C         -3.74477        1.59588        0.81419
H         -4.52140        0.83922        0.92964
H         -3.55883        2.10877        1.75714
H         -4.00679        2.30063        0.02560
S          1.77291        0.63774       -1.23899
O          2.13917        1.69708       -2.16540
O          1.02575        1.11179       -0.00976
O          2.91760       -0.20373       -0.75114
H          2.71624       -0.54278        0.72455
C          0.66397       -0.49112       -2.05680
H         -0.23934        0.05214       -2.33876
H          1.17645       -0.87592       -2.93918
H          0.41812       -1.29860       -1.36176
N         -0.98365       -2.86383       -0.06484
H         -1.06779       -3.63273        0.59283
C         -1.71190       -3.18085       -1.29474
H         -2.76803       -3.44224       -1.13870
H         -1.68678       -2.31225       -1.95677
H         -1.22114       -4.01467       -1.80580
H         -1.40110       -2.05060        0.38392
N          2.56602       -0.77535        1.76930
C          1.22474       -1.39238        1.93394
C          2.75414        0.46758        2.55336
H          3.28644       -1.45324        2.01334
H          0.46687       -0.63304        1.73983
H          1.10338       -2.18919        1.19740
H          1.12293       -1.77919        2.95004
H          2.04148        1.19911        2.17272
H          2.58029        0.26709        3.61221
H          3.76872        0.83447        2.39596
