26
2msa2a_60.log	Energy: -904639.6278185
S         -2.33039       -0.31593        0.02654
O         -2.93422        1.02621       -0.07817
O         -1.58172       -0.53659        1.29144
O         -1.47851       -0.63179       -1.16978
C         -3.65690       -1.50884        0.00620
H         -3.22397       -2.50628        0.08364
H         -4.30438       -1.30304        0.85889
H         -4.20277       -1.39448       -0.93027
S          2.45621       -0.24567        0.02466
O          2.12527        0.48459       -1.19790
O          2.67278        0.49595        1.25068
O          3.80796       -1.08218       -0.30863
H          4.16881       -0.74901       -1.14278
C          1.31866       -1.56684        0.31568
H          0.38345       -1.13278        0.68913
H          1.14313       -2.08191       -0.62787
H          1.76737       -2.22291        1.06224
N         -0.36234        1.83892       -1.40963
H         -0.22375        2.03433       -0.35590
H         -0.74876        0.86065       -1.47879
H         -1.04075        2.48676       -1.79943
H          0.53949        1.88369       -1.87819
N         -0.05937        2.07783        1.32495
H         -0.61433        1.26424        1.60739
H         -0.45619        2.89116        1.78406
H          0.88850        1.94243        1.66887
