42
2msa2eda_293.log	Energy: -1072755.3259663
S          0.23016        2.03157       -0.83563
O         -1.10919        2.28878       -1.37461
O          1.18642        1.36797       -1.73427
O          0.15774        1.27156        0.48829
C          0.93431        3.60903       -0.38416
H          1.02933        4.20104       -1.29490
H          0.26295        4.09690        0.32276
H          1.91363        3.43545        0.06391
S         -2.95440       -0.32309        0.74549
O         -3.92771       -0.93317        1.62753
O         -2.05297       -1.19128       -0.01929
O         -2.08411        0.66753        1.62023
H         -1.23553        0.94607        1.14409
C         -3.77623        0.75908       -0.39938
H         -4.38442        0.13265       -1.05315
H         -4.40527        1.43532        0.17961
H         -3.01254        1.30509       -0.95894
H         -0.34727       -1.18343       -1.76161
H          1.38818       -1.27480       -2.07928
H          0.11293       -3.37743       -2.73204
H          1.40585       -3.69330       -1.56671
H         -1.40645       -3.34451       -0.75988
H         -0.54114       -4.74985       -0.72727
H          0.62423       -0.42472        0.16408
H          0.17692       -2.00596        0.48017
C          0.57430       -1.70142       -1.49330
C          0.43168       -3.20672       -1.69366
N          0.82432       -1.41901       -0.05844
N         -0.47343       -3.74116       -0.68238
H          1.81065       -1.64200        0.22375
H          5.21805       -0.62152        1.33469
H          4.80333       -0.83491       -0.37417
H          4.25626        1.45416        0.48439
H          2.86669        0.61339       -0.18444
H          3.31288        1.22319        2.61637
H          1.91069        1.15023        1.74339
H          3.99698       -2.69707        0.90337
H          3.16571       -1.68476        1.89557
C          4.37993       -0.68859        0.62466
C          3.57238        0.60974        0.65222
N          3.49271       -1.81730        0.93960
N          2.81434        0.71279        1.89794
