42
2msa2eda_526.log	Energy: -1072742.4861876
S         -2.30754       -1.06016       -0.77600
O         -3.13672       -0.47867        0.29643
O         -1.86783       -2.44690       -0.56382
O         -1.14601       -0.14831       -1.10715
C         -3.31213       -1.05811       -2.25706
H         -4.16856       -1.70892       -2.07782
H         -3.64298       -0.03767       -2.45265
H         -2.71150       -1.43817       -3.08399
S          2.36155       -1.38937        0.26827
O          3.18516       -0.44314       -0.45448
O          1.62115       -0.95714        1.44959
O          3.34764       -2.58309        0.76319
H          3.08749       -2.83373        1.66104
C          1.28499       -2.22714       -0.85642
H          0.59057       -1.47672       -1.24721
H          1.89965       -2.66741       -1.64142
H          0.70797       -2.97372       -0.31112
H         -0.98216        2.84034        2.26516
H         -2.12796        2.21536        1.05185
H         -2.80128        1.52191        3.35444
H         -2.41805        0.14450        2.31627
H         -0.76814        1.16077        4.51302
H         -1.12282       -0.38867        4.10701
H          0.42301        1.94337        0.71512
H          0.22261        0.63846        1.77747
C         -1.38276        1.93470        1.79793
C         -1.98315        0.99824        2.84204
N         -0.26444        1.25031        1.10950
N         -0.92472        0.53105        3.73475
H         -0.61536        0.66275        0.31739
H          2.44102        3.58959       -1.90109
H          2.97701        2.22242       -0.90000
H          1.73800        1.51159       -2.96148
H          1.05922        0.90445       -1.46482
H         -0.16251        2.82766       -3.22246
H         -0.82093        1.68555       -2.22948
H          1.91629        3.90886        0.45526
H          0.54802        3.79251       -0.45610
C          2.09804        2.76857       -1.25342
C          1.20833        1.81495       -2.04863
N          1.34687        3.27390       -0.09412
N         -0.10625        2.40448       -2.30405
