28
2msa1dma_84.log	Energy: -918445.7908294
S          2.55594       -0.58659       -0.09583
O          3.84795       -1.15307       -0.40785
O          1.44927       -0.70900       -1.03984
O          2.79238        0.96665        0.20539
H          1.95902        1.47367        0.06287
C          2.00665       -1.20613        1.47967
H          1.85809       -2.28038        1.36174
H          2.78438       -1.00433        2.21588
H          1.06810       -0.71205        1.73540
S         -0.83978        1.47206        0.03800
O         -0.87769        0.50197        1.11630
O          0.38451        2.26810       -0.11227
O         -2.04324        2.53678        0.23297
H         -1.69544        3.31147        0.69979
C         -1.33079        0.74341       -1.48972
H         -0.50026        0.09089       -1.76844
H         -2.23757        0.15119       -1.30272
H         -1.47385        1.54193       -2.21674
N         -3.19638       -1.67822       -0.49484
C         -3.81138       -1.43296        0.80402
C         -1.96731       -2.45689       -0.39335
H         -3.85487       -2.16202       -1.09586
H         -3.14292       -0.80713        1.40283
H         -4.75332       -0.89442        0.66996
H         -4.01395       -2.35747        1.37099
H         -1.22594       -1.88070        0.16907
H         -2.10533       -3.42629        0.11388
H         -1.55867       -2.64025       -1.39082
