40
2msa1dma1eda_48.log	Energy: -1038036.9658565
S          2.46331       -1.03058       -0.14934
O          2.91859        0.05769       -1.03675
O          1.82695       -2.17403       -0.86134
O          1.58900       -0.53619        0.95717
C          3.92225       -1.69744        0.63315
H          3.61807       -2.49740        1.30820
H          4.58067       -2.07958       -0.14726
H          4.40692       -0.89246        1.18646
S         -2.96020        0.60781        0.18276
O         -2.62552        1.67034        1.14546
O         -3.49917       -0.64344        0.73590
O         -1.76357        0.32145       -0.71425
C         -4.19826        1.26748       -0.92202
H         -5.08501        1.49387       -0.32904
H         -3.80486        2.17321       -1.38351
H         -4.42460        0.51463       -1.67705
N         -0.83700       -2.22289       -0.16989
C         -1.70520       -3.08309       -0.99725
C         -0.92519       -2.49979        1.28260
H          0.16130       -2.28887       -0.47538
H         -2.74297       -2.89884       -0.71483
H         -1.55399       -2.82884       -2.04650
H         -1.44529       -4.12977       -0.83086
H         -1.94084       -2.28106        1.61408
H         -0.67107       -3.54685        1.45824
H         -0.20700       -1.85206        1.78526
H         -1.12596       -1.23424       -0.34167
H          1.35100        1.87384       -1.47972
H          0.18080        3.20101       -1.27154
H          2.53469        3.97445       -1.08754
H          1.63316        4.27431        0.40331
H          3.34516        1.90827        0.04808
H          3.71633        3.23451        0.96842
H         -0.49196        1.24701       -0.10424
H          0.95646        1.13143        0.72136
C          0.94666        2.60267       -0.77335
C          2.06073        3.48173       -0.22384
N          0.29251        1.81223        0.29710
N          2.95876        2.67942        0.59062
H         -0.11650        2.39046        1.03118
