37
2msa1ma1eda_417.log	Energy: -1013353.3103366
S          1.60238       -1.78155       -0.16908
O          2.85392       -1.16141       -0.67671
O          0.63379       -2.16623       -1.20023
O          0.99020       -0.88855        0.88619
H         -0.37117       -0.23506        0.75350
C          2.09442       -3.25715        0.69905
H          2.55575       -3.92977       -0.02442
H          2.80625       -2.97867        1.47583
H          1.20123       -3.70965        1.12981
S         -1.62659        0.89448       -0.64662
O         -2.72681        1.81098       -0.43353
O         -1.26120        0.26891        0.75700
O         -0.39765        1.44493       -1.24977
H          1.28695        1.35222       -1.10000
C         -2.14760       -0.49386       -1.61416
H         -2.99565       -0.94313       -1.08544
H         -2.43427       -0.10615       -2.59271
H         -1.30256       -1.18367       -1.68734
N         -4.10742       -1.21941        0.94929
H         -4.41436       -2.09706        1.35389
C         -5.12329       -0.17983        1.12031
H         -5.40273        0.01479        2.16632
H         -4.74837        0.75087        0.68744
H         -6.02720       -0.46395        0.57349
H         -3.24723       -0.95204        1.41884
H          3.69037        2.77319       -0.08784
H          2.15351        3.52527       -0.61442
H          2.20270        3.36543        1.80705
H          0.94914        2.29452        1.18160
H          2.77079        1.49111        2.92516
H          2.23651        0.45794        1.76745
H          2.68827        1.60954       -1.95354
H          2.70458        0.56712       -0.67060
C          2.60680        2.65109       -0.14020
C          2.03751        2.43432        1.25671
N          2.31862        1.47992       -1.01342
N          2.72306        1.33860        1.92599
