42
2msa2eda_506.log	Energy: -1072748.3185555
S         -2.71680       -1.21151       -0.54519
O         -3.63132       -2.34709       -0.62752
O         -2.28006       -0.83716        0.82435
O         -3.22156        0.01064       -1.27960
H         -2.99844        1.32937       -0.70289
C         -1.23818       -1.66525       -1.45083
H         -0.84391       -2.57668       -0.99614
H         -1.52813       -1.85828       -2.48421
H         -0.50951       -0.85289       -1.39595
S          2.69457        0.84501       -0.55388
O          2.01721        1.55613        0.55664
O          1.76526        0.23525       -1.52961
O          3.69529       -0.15803       -0.05440
H          3.00068       -1.64117       -0.18547
C          3.65001        2.07511       -1.42566
H          2.95962        2.83005       -1.80325
H          4.36005        2.51535       -0.72530
H          4.17033        1.58594       -2.24919
H         -3.13206        3.25624        1.60656
H         -3.32354        1.47367        1.59254
H         -1.07844        2.20329        2.52677
H         -0.99580        1.13600        1.12094
H         -0.39877        3.98929        1.13879
H          0.41950        2.73648        0.45720
H         -3.77676        2.84402       -0.57332
H         -2.09922        2.83561       -0.64616
C         -2.75964        2.31592        1.18894
C         -1.26344        2.14295        1.44734
N         -2.93737        2.34791       -0.28664
N         -0.51163        3.10802        0.64932
H          1.28794       -3.80266        1.00066
H          2.98088       -3.46689        1.44992
H          1.14882       -2.38460        2.97719
H          2.39906       -1.29386        2.36068
H         -0.40552       -1.26351        1.54665
H          0.79748       -0.10592        1.39922
H          2.36531       -3.02212       -0.97634
H          1.38411       -1.78890       -0.34410
C          2.04217       -3.01977        1.11820
C          1.54444       -1.91259        2.07107
N          2.23448       -2.37568       -0.20374
N          0.58042       -1.09594        1.36637
