40
2msa1dma1eda_487.log	Energy: -1038010.7697897
S         -1.81744        0.73515       -1.01973
O         -1.31762        0.32107        0.32458
O         -1.72684        2.17001       -1.28243
O         -3.21337        0.17445       -1.21738
H         -3.66537       -0.56502       -0.06793
C         -0.82237       -0.11417       -2.23263
H          0.23419        0.09864       -2.05175
H         -1.00124       -1.18489       -2.13066
H         -1.13349        0.23227       -3.21842
S          2.55466       -1.52966       -0.17446
O          3.48918       -2.58818       -0.54941
O          2.36899       -0.44253       -1.16294
O          2.84229       -0.94976        1.19597
H          2.92286        0.50117        1.33008
C          0.94642       -2.29422        0.02795
H          0.68265       -2.76839       -0.91914
H          1.02437       -3.04483        0.81565
H          0.22783       -1.51391        0.28894
N         -3.97495       -1.12012        0.84277
C         -4.01698       -0.15474        1.96517
C         -3.01987       -2.23230        1.05447
H         -4.90743       -1.49062        0.66749
H         -3.02179        0.28306        2.05264
H         -4.73648        0.62847        1.72518
H         -4.30211       -0.66341        2.88846
H         -2.02940       -1.79061        1.16627
H         -3.29547       -2.80081        1.94520
H         -3.03256       -2.87924        0.17657
H          3.15720        3.38247        0.41830
H          3.35371        1.88316       -0.54957
H          1.06584        2.97837       -0.88817
H          1.05207        1.30756       -0.32868
H          0.26490        3.63236        1.18321
H         -0.30693        2.10015        1.18199
H          3.88503        1.77955        1.95840
H          2.20993        1.86729        2.11777
C          2.79476        2.36288        0.25523
C          1.29584        2.32965       -0.03724
N          2.99515        1.58732        1.50729
N          0.54386        2.65798        1.17572
