32
2msa2ma_133.log	Energy: -953960.2860266
S          2.37279        0.39514       -0.52910
O          3.36987        1.32285       -1.01675
O          1.35092        0.13903       -1.69234
O          1.63853        0.76040        0.69826
H          0.19272        1.32540        1.34635
C          3.10786       -1.19257       -0.23536
H          3.55102       -1.52910       -1.17291
H          3.87972       -1.04708        0.52199
H          2.33012       -1.87946        0.12522
S         -2.07871       -0.17574       -0.65493
O         -2.02779        1.22261       -1.10071
O         -2.32325       -0.30821        0.81455
O         -0.87134       -0.96678       -1.06573
H          0.46366       -0.26806       -1.40248
C         -3.45221       -0.97471       -1.45702
H         -4.36224       -0.44807       -1.16942
H         -3.29215       -0.91022       -2.53326
H         -3.48585       -2.01393       -1.13032
N          0.47066       -2.66518        1.08380
H         -0.11078       -2.20247        0.38654
C          0.35130       -1.98156        2.36895
H         -0.68483       -1.83834        2.70973
H          0.89375       -2.54195        3.13653
H          0.82960       -1.00000        2.28539
H          0.14199       -3.62163        1.15797
N         -0.69072        1.57567        1.83962
H         -1.39249        0.83532        1.55878
C         -1.15507        2.92732        1.44077
H         -2.06686        3.16833        1.98690
H         -0.37610        3.65734        1.65932
H         -1.36644        2.89357        0.37216
H         -0.51642        1.50636        2.83976
