43
2msa1eda1tma_209.log	Energy: -1062672.3561905
S          0.67284        1.83176       -0.49793
O         -0.53941        2.65541       -0.48110
O          0.91909        1.01578       -1.67910
O          0.69105        0.93841        0.80454
H          0.25954        0.00739        0.67671
C          2.08166        2.85532       -0.17305
H          2.13640        3.57901       -0.98757
H          1.92526        3.36054        0.78010
H          2.96009        2.19698       -0.15881
S         -1.04652       -1.97543       -0.44414
O         -1.64876       -3.26037       -0.10435
O         -0.35524       -1.33611        0.73949
O         -1.99516       -0.98490       -1.04943
H         -2.62057        0.06797       -0.10074
C          0.20928       -2.22695       -1.67834
H          0.95889       -2.90369       -1.26829
H         -0.27436       -2.66291       -2.55294
H          0.65001       -1.25608       -1.90912
H          5.31627       -1.26004        0.45352
H          5.28387        0.27555        1.33522
H          3.83624       -1.30208        2.47241
H          2.83420       -0.04022        1.73455
H          3.09728       -2.78551        0.80312
H          1.73804       -1.88290        1.00523
H          4.95832        0.48261       -1.13098
H          3.49664       -0.22826       -0.92299
C          4.68135       -0.39493        0.71088
C          3.48350       -0.89289        1.51354
N          4.20920        0.33661       -0.46312
N          2.71303       -1.85069        0.72181
N         -3.25536        0.66226        0.52250
C         -3.68740        1.82990       -0.28265
H         -2.79628        2.38805       -0.57273
H         -4.20295        1.46598       -1.17206
H         -4.35866        2.45171        0.31508
C         -4.37929       -0.23994        0.86600
H         -4.85482       -0.57511       -0.05569
H         -3.98022       -1.10772        1.39246
H         -5.09586        0.29348        1.49503
C         -2.49082        1.06765        1.72803
H         -2.04253        0.17589        2.16804
H         -1.70455        1.75724        1.42379
H         -3.17188        1.54893        2.43452
