34
2msa1a1eda_28.log	Energy: -988713.0323125
S         -2.08965       -1.31537       -0.06008
O         -1.61366       -2.52802       -0.77794
O         -2.10929       -0.09971       -0.92565
O         -1.33216       -1.07666        1.19382
C         -3.78754       -1.62887        0.37863
H         -4.34293       -1.81449       -0.54089
H         -3.81659       -2.50238        1.03008
H         -4.17259       -0.74771        0.89252
S          2.81937        0.06804       -0.14457
O          2.00151       -0.08682        1.09640
O          2.36239        1.20779       -0.97329
O          2.91457       -1.22016       -0.88590
C          4.48060        0.45779        0.37186
H          4.84240       -0.35064        1.00714
H          5.09555        0.54995       -0.52355
H          4.45573        1.39958        0.92017
N          0.92261       -2.69198        0.24514
H          1.69604       -2.27056       -0.32630
H          0.03185       -2.79163       -0.29565
H          1.20827       -3.57979        0.64667
H          0.71947       -2.01184        0.98900
H         -1.27178        2.46812        1.68157
H          0.13890        3.37888        1.08378
H         -1.78476        4.48548        0.21641
H         -1.09234        3.60069       -1.14486
H         -3.55080        3.35768       -0.85630
H         -2.84077        1.88717       -0.69870
H          0.31096        0.90422        0.88916
H         -0.88894        0.92907       -0.25850
C         -0.70628        2.75162        0.79166
C         -1.62109        3.47993       -0.18355
N         -0.15146        1.51154        0.19511
N         -2.91342        2.81509       -0.28556
H          0.60168        1.68872       -0.49129
