29
2msa1a1ma_87.log	Energy: -929298.4599297
S          1.71869       -0.73230        0.20029
O          1.95233       -2.16070        0.57393
O          1.19169        0.09861        1.28881
O          0.83265       -0.70547       -1.02637
H         -0.39049        0.10114       -1.03268
C          3.27239       -0.04734       -0.31222
H          3.94888       -0.07874        0.54251
H          3.65764       -0.64791       -1.13617
H          3.06255        0.98169       -0.62471
S         -2.33268        0.18913       -0.02628
O         -3.63616        0.62933       -0.47113
O         -1.26702        0.64988       -1.08656
O         -2.14756       -1.25152        0.23860
H         -1.02939       -2.46004       -0.11569
C         -1.86732        1.06397        1.44690
H         -1.96256        2.13043        1.24132
H         -2.55904        0.75943        2.23310
H         -0.83640        0.79236        1.68634
N         -0.32567       -3.19948       -0.34709
H          0.59815       -2.92724        0.10931
H         -0.17826       -3.17923       -1.35424
H         -0.65214       -4.11454       -0.04931
N          1.51315        2.75658       -0.93412
H          1.63601        3.47968       -1.63474
C          1.30925        3.34632        0.38900
H          0.43689        4.01366        0.46074
H          1.19444        2.53898        1.11651
H          2.19712        3.92079        0.66963
H          0.69454        2.22175       -1.20777
