40
2msa1dma1eda_355.log	Energy: -1038020.2508428
S          1.30927       -1.38976        0.75045
O          0.79618       -1.25801       -0.62124
O          1.08165       -0.16671        1.58871
O          2.77323       -1.71543        0.76634
H          3.34434       -0.25441        0.22762
C          0.42219       -2.71722        1.52623
H         -0.63712       -2.46184        1.43465
H          0.64772       -3.63523        0.98296
H          0.73701       -2.79157        2.56697
S         -2.59213       -0.28560       -0.83858
O         -4.00938       -0.01429       -1.09099
O         -2.29842       -0.93952        0.46232
O         -1.72813        0.95294       -0.99743
H         -1.37600        1.39023        0.48794
C         -2.02852       -1.39684       -2.11700
H         -2.63307       -2.30260       -2.05367
H         -2.18066       -0.90806       -3.08011
H         -0.97611       -1.61318       -1.93458
N         -1.00352        1.56607        1.47137
C         -2.09037        1.43045        2.45998
C         -0.29873        2.85716        1.50436
H         -0.30622        0.79854        1.58733
H         -2.83329        2.21128        2.28569
H         -2.54781        0.45176        2.31347
H         -1.67882        1.52526        3.46733
H         -1.00880        3.66225        1.30538
H          0.15955        3.00353        2.48510
H          0.47013        2.84455        0.72961
H          4.00044        2.09990       -1.53173
H          4.40593        0.39100       -1.83589
H          2.41529        1.23295       -3.19591
H          2.04213       -0.16707       -2.17545
H          0.96860        2.45684       -1.91683
H          0.42298        1.04058       -1.30256
H          4.15244        1.18072        0.59788
H          2.51406        1.19224        0.24305
C          3.64441        1.06965       -1.44735
C          2.29677        0.89455       -2.16069
N          3.43500        0.78269       -0.00293
N          1.25816        1.61692       -1.43030
