40
2msa1dma1eda_188.log	Energy: -1038020.5779760
S         -0.85476        2.25216        0.33769
O         -0.71912        1.00406        1.17205
O         -2.03251        2.21850       -0.53767
O          0.43267        2.53476       -0.35011
C         -1.09657        3.57425        1.50970
H         -2.02930        3.38617        2.04173
H         -0.25183        3.58603        2.19826
H         -1.15499        4.50964        0.95254
S         -2.21847       -1.68719       -0.47795
O         -2.74840       -3.02953       -0.36488
O         -0.91583       -1.51592       -1.14138
O         -2.14392       -1.08269        0.97314
H         -1.60348       -0.21337        1.01679
C         -3.38540       -0.63829       -1.31052
H         -3.45612       -0.99061       -2.34029
H         -4.34369       -0.74091       -0.80126
H         -3.01707        0.39030       -1.26096
N          2.35667       -1.25789        1.58816
C          3.09573       -2.48090        1.29799
C          1.14111       -1.49086        2.36901
H          2.96231       -0.60206        2.07101
H          2.47944       -3.13044        0.66763
H          4.00842       -2.23072        0.75106
H          3.36648       -3.04626        2.20268
H          0.45672       -2.11501        1.78666
H          1.33946       -1.99622        3.32574
H          0.64058       -0.53811        2.55225
H          2.55638       -1.13614       -2.13492
H          1.65382        0.22819       -2.81240
H          3.99255        0.84853       -2.79967
H          3.14455        1.81743       -1.59265
H          4.91609       -0.44056       -1.02969
H          4.97183        1.07729       -0.43188
H          0.55300       -0.57222       -0.87201
H          1.91107       -0.44374        0.10959
C          2.26442       -0.09527       -1.96579
C          3.48505        0.80320       -1.82527
N          1.43143       -0.04113       -0.74957
N          4.34261        0.34288       -0.73428
H          1.15139        0.94012       -0.54617
