37
2msa1ma1eda_40.log	Energy: -1013374.1266204
S          2.90448        0.37239       -0.00176
O          2.45282        1.50154        0.85968
O          1.92958        0.09626       -1.09010
O          3.24285       -0.85358        0.76824
C          4.42204        0.91325       -0.76391
H          5.14735        1.10775        0.02628
H          4.77372        0.11996       -1.42363
H          4.21475        1.82206       -1.32901
S         -2.19755       -1.13285       -0.21637
O         -1.82178       -2.40511       -0.85228
O         -2.36401        0.01326       -1.13640
O         -1.24233       -0.77967        0.90280
C         -3.77526       -1.37531        0.58211
H         -4.50712       -1.62160       -0.18772
H         -3.67950       -2.19259        1.29706
H         -4.04459       -0.44975        1.09297
N          0.97435       -2.29872        0.17843
H          1.86902       -1.93826        0.57301
H          0.18287       -1.76826        0.60471
C          0.78977       -3.75707        0.31820
H         -0.16231       -4.02341       -0.13916
H          1.61429       -4.27442       -0.17249
H          0.78026       -4.00773        1.37883
H          0.98140       -1.99492       -0.79855
H         -0.82629        3.26245        1.51138
H          0.07219        3.79531        0.07169
H         -2.27144        4.42312       -0.11202
H         -1.87069        3.24735       -1.36500
H         -3.98879        2.96502        0.12354
H         -3.09435        1.63683       -0.24429
H          0.77912        1.64415        0.59745
H         -0.77905        0.99740        0.68530
C         -0.70406        3.11752        0.43641
C         -2.02252        3.37062       -0.28037
N         -0.20193        1.73546        0.23904
N         -3.08428        2.52816        0.25075
H         -0.15554        1.46705       -0.74796
