40
2msa1dma1eda_68.log	Energy: -1038035.1420441
S         -2.72622        0.35013       -0.06392
O         -2.77631        1.81457        0.17556
O         -1.64998       -0.28100        0.76798
O         -2.59332       -0.03054       -1.48741
C         -4.27350       -0.31152        0.52246
H         -4.37566       -0.05794        1.57756
H         -5.07595        0.13870       -0.06229
H         -4.25366       -1.39299        0.38516
S          2.68061        0.19104       -0.09493
O          3.09014        1.58125       -0.34799
O          2.42803       -0.60813       -1.33074
O          1.50743        0.09253        0.83044
C          4.03573       -0.61583        0.73946
H          4.90577       -0.57421        0.08367
H          4.22915       -0.08278        1.67043
H          3.75548       -1.65051        0.93882
N         -0.04583        2.32739        0.33813
C          0.08873        2.54637       -1.12308
C          0.62046        3.36313        1.15418
H         -1.06159        2.25483        0.54306
H          1.14822        2.53072       -1.38112
H         -0.44984        1.75107       -1.64007
H         -0.36700        3.50422       -1.37710
H          1.68714        3.34039        0.92515
H          0.19449        4.33948        0.91793
H          0.46164        3.13426        2.20801
H          0.38631        1.40540        0.57956
H         -1.03124       -3.46262       -1.07778
H          0.65097       -3.42139       -1.67564
H          0.73642       -4.38079        0.50594
H          1.34473       -2.72634        0.67942
H         -0.33298       -3.43081        2.37107
H         -0.89982       -2.15112        1.52514
H         -0.75796       -1.31122       -1.92509
H         -0.56679       -1.07529       -0.32907
C         -0.04156       -3.02544       -0.92975
C          0.44239       -3.32666        0.48220
N         -0.13799       -1.55714       -1.15064
N         -0.62990       -3.13012        1.45003
H          0.81665       -1.15054       -1.29925
