38
2msa1ma1tma_122.log	Energy: -1003272.6836812
S         -2.06360        1.53108       -0.05334
O         -1.89058        0.99669        1.31848
O         -3.33833        2.21963       -0.28792
O         -1.83885        0.40941       -1.06116
H         -2.70092       -0.70526       -0.61375
C         -0.74400        2.68506       -0.36215
H         -0.85167        3.49608        0.35901
H          0.21882        2.18587       -0.23790
H         -0.85895        3.06102       -1.37901
S          2.40770       -0.15437        0.43268
O          2.32972        1.23962        0.01236
O          3.22369       -0.46186        1.60730
O          2.90269       -1.05850       -0.77015
H          3.94799       -1.09697       -0.73585
C          0.76559       -0.78461        0.64394
H          0.27939       -0.19262        1.42229
H          0.21901       -0.64822       -0.29161
H          0.84251       -1.83430        0.92790
N          5.48428       -0.96604       -0.48077
H          5.54339       -1.12174        0.52322
C          5.89633        0.40841       -0.80894
H          6.93353        0.62300       -0.53062
H          5.77390        0.56966       -1.88183
H          5.23617        1.10491       -0.28785
H          6.08211       -1.64803       -0.93651
N         -3.34759       -1.49879       -0.21302
C         -2.58571       -2.14447        0.88001
H         -1.69965       -2.61954        0.45628
H         -2.28225       -1.36223        1.57850
H         -3.21120       -2.89329        1.37332
C         -4.56679       -0.82622        0.30134
H         -4.27128       -0.13633        1.09213
H         -5.01774       -0.25132       -0.50761
H         -5.26413       -1.57954        0.67766
C         -3.65182       -2.42740       -1.31952
H         -4.16136       -1.87646       -2.11090
H         -2.71814       -2.83441       -1.71001
H         -4.29034       -3.23838       -0.95908
