35
2msa1a1tma_93.log	Energy: -978607.7599089
S         -2.13647       -1.06243       -0.13940
O         -1.13568       -0.88401       -1.20080
O         -3.52543       -1.12535       -0.57686
O         -1.97737        0.07980        0.93251
H         -2.59328        0.88011        0.67752
C         -1.70316       -2.48562        0.82024
H         -1.72189       -3.33808        0.13984
H         -0.69966       -2.32246        1.21931
H         -2.44505       -2.60011        1.60991
S          2.21926       -1.37196        0.07073
O          3.03832       -2.56721        0.09001
O          1.19618       -1.18641        1.09869
O          1.50855       -1.27877       -1.35689
H          0.53649       -1.11397       -1.25396
C          3.27014        0.05699        0.03557
H          3.81900        0.06475        0.97866
H          3.95806       -0.05540       -0.80290
H          2.64202        0.95079       -0.06923
N         -3.59471        1.97515        0.16097
H         -3.15021        2.65585       -0.44772
H         -4.10323        2.47735        0.88158
H         -4.26320        1.44284       -0.39204
N          1.14416        2.58472       -0.04305
C          0.57859        2.32490        1.27086
H          0.18407        1.30714        1.31202
H          1.35684        2.42346        2.03389
H         -0.23730        3.03237        1.52024
C          1.74272        3.90429       -0.11792
H          2.51828        4.00534        0.64734
H          2.20715        4.04843       -1.09811
H          1.00069        4.71233        0.03501
C          0.15947        2.38959       -1.09054
H          0.62853        2.50594       -2.07199
H         -0.26195        1.38391       -1.02839
H         -0.66938        3.12517       -1.02034
