43
2msa1eda1tma_48.log	Energy: -1062690.7337403
S          2.26668        0.59291       -1.27236
O          2.44746       -0.83625       -1.64613
O          3.48718        1.39712       -1.24572
O          1.47933        0.68983        0.01599
H          0.62506       -0.93785        0.30236
C          1.17655        1.28641       -2.50866
H          1.64000        1.13879       -3.48468
H          0.21509        0.77475       -2.43846
H          1.06218        2.35230       -2.30460
S         -2.57499       -0.75271       -0.52636
O         -3.39521       -0.31205        0.61752
O         -2.07091       -2.14795       -0.40839
O         -1.45947        0.20060       -0.82553
H         -0.69364        1.37553        0.38285
C         -3.62924       -0.74172       -1.96650
H         -4.43695       -1.45378       -1.79555
H         -4.02642        0.26543       -2.09552
H         -3.03345       -1.03701       -2.83039
H          3.16321       -2.34053        0.96764
H          2.69765       -2.99272        2.54358
H          1.15538       -3.81314        0.84214
H          0.29792       -2.74146        1.97310
H          1.26785       -1.95848       -0.73260
H         -0.36267       -2.17145       -0.22374
H          2.99957       -0.78829        3.01209
H          2.34376       -0.24584        1.61116
C          2.39996       -2.29150        1.75818
C          1.07026       -2.78487        1.20199
N          2.26118       -0.95655        2.33893
N          0.61302       -1.94798        0.06968
N         -0.82425        1.94517        1.24626
C          0.25443        2.96034        1.34641
H          1.21417        2.44832        1.33621
H          0.19468        3.62169        0.48132
H          0.10595        3.53244        2.26494
C         -2.16486        2.57885        1.13990
H         -2.17458        3.22521        0.26160
H         -2.91059        1.78913        1.03489
H         -2.34374        3.16887        2.04149
C         -0.77617        0.97379        2.37339
H         -1.57618        0.24613        2.22431
H          0.19819        0.47991        2.38206
H         -0.93170        1.51620        3.30879
