40
2msa1dma1eda_22.log	Energy: -1038037.4645069
S          2.77111        0.39718       -0.35346
O          1.96704        0.60769        0.88289
O          2.39910        1.34556       -1.43147
O          2.74429       -1.03135       -0.77489
C          4.46980        0.75334        0.05640
H          4.53006        1.78799        0.39418
H          4.78400        0.06972        0.84521
H          5.06917        0.60593       -0.84218
S         -2.38688       -0.78026       -0.55247
O         -2.16380       -2.08010       -1.19405
O         -2.23532        0.40171       -1.44264
O         -1.54696       -0.60898        0.68697
C         -4.08007       -0.74377        0.01313
H         -4.72703       -0.84405       -0.85869
H         -4.23064       -1.57566        0.70142
H         -4.25686        0.20906        0.51380
N          0.69129       -2.24422        0.59346
C          0.34637       -3.55726        0.00861
C          1.21330       -2.30414        1.97474
H          1.41674       -1.77945       -0.00209
H         -0.36677       -4.06391        0.66049
H         -0.11955       -3.39106       -0.96170
H          1.25706       -4.15048       -0.08898
H          0.44509       -2.71562        2.63154
H          2.10152       -2.93828        1.99334
H          1.47392       -1.28871        2.27385
H         -0.15085       -1.62538        0.58975
H          0.01730        3.80141        0.44366
H         -0.96044        3.78779       -1.05035
H         -2.34738        4.02124        1.02530
H         -2.76910        2.59558        0.06601
H         -2.31567        2.42828        2.64930
H         -1.72809        1.23406        1.67988
H          0.70666        1.99820       -1.07818
H          0.18592        1.44202        0.34786
C         -0.73327        3.25035       -0.12671
C         -1.99255        3.03593        0.70859
N         -0.14555        1.94103       -0.49203
N         -1.68331        2.23169        1.88459
H         -0.85600        1.33805       -0.96372
