37
2msa1ma1eda_150.log	Energy: -1013360.9895026
S          2.73564       -0.40302       -0.20520
O          2.42800       -0.80134       -1.56928
O          2.11025       -1.20245        0.86065
O          2.44867        1.11872        0.03100
C          4.49405       -0.40836        0.03911
H          4.70468       -0.08264        1.05704
H          4.83302       -1.43199       -0.12209
H          4.94000        0.26500       -0.69249
S         -1.12308        1.79845       -0.34839
O         -2.36764        1.90410        0.42625
O         -1.12774        0.72323       -1.37413
O          0.07191        1.66359        0.55869
H          1.44219        1.32754        0.19655
C         -0.90027        3.33256       -1.22704
H         -1.74580        3.45850       -1.90352
H         -0.86852        4.13769       -0.49301
H          0.03446        3.27435       -1.78531
N         -1.87479       -0.39943        2.33333
H         -2.25131        0.43556        1.87761
C         -0.83669       -0.01316        3.29883
H         -1.21106        0.63468        4.10044
H         -0.40018       -0.90978        3.74762
H         -0.05151        0.52131        2.76084
H         -2.64715       -0.86212        2.80206
H         -0.76278       -3.26372       -1.14023
H         -1.27195       -3.54288        0.54617
H         -3.24234       -3.51650       -0.84158
H         -3.25567       -2.05770        0.15572
H         -3.74330       -1.80207       -2.31726
H         -2.51302       -0.83694       -1.82556
H          0.37039       -1.73210        0.37652
H         -0.66149       -0.86566       -0.59291
C         -1.30646       -2.84211       -0.29237
C         -2.74870       -2.55123       -0.69124
N         -0.62284       -1.60021        0.13805
N         -2.80381       -1.80650       -1.93938
H         -1.10872       -1.18739        0.99764
