38
2msa1ma1tma_49.log	Energy: -1003282.6912273
S          2.61491       -0.24676        0.29344
O          3.51761       -0.41679        1.41665
O          2.90506        0.80014       -0.68575
O          1.14561        0.05413        0.80720
C          2.43127       -1.80557       -0.54888
H          1.61852       -1.73401       -1.27460
H          3.38736       -2.01244       -1.03101
H          2.19879       -2.56824        0.19469
S         -1.45925       -1.80721       -0.18635
O         -0.78365       -2.04767       -1.47176
O         -2.30639       -0.59064       -0.17062
O         -0.49711       -1.81125        0.97849
H          0.52470       -0.77427        0.91951
C         -2.52987       -3.19636        0.13193
H         -1.92182       -4.10100        0.14013
H         -3.01340       -3.04584        1.09697
H         -3.26825       -3.23593       -0.66923
N         -1.20104        1.44903        1.69212
H         -1.67349        0.56404        1.50885
C         -2.07036        2.35225        2.44535
H         -2.33817        1.97798        3.44169
H         -1.58143        3.32349        2.56866
H         -2.99856        2.51007        1.88851
H         -0.35588        1.23231        2.21157
N         -0.57139        2.07689       -0.96348
C         -0.12597        1.13761       -2.02482
H          0.89392        0.82640       -1.80478
H         -0.79082        0.27527       -2.04264
H         -0.15181        1.66721       -2.98097
C         -1.93895        2.57791       -1.23304
H         -2.60964        1.71783       -1.25916
H         -2.23183        3.25079       -0.42622
H         -1.94998        3.10916       -2.18728
C          0.41033        3.16934       -0.76215
H          0.09033        3.77274        0.08875
H          1.38419        2.71956       -0.56127
H          0.45647        3.78376       -1.66431
H         -0.66056        1.60876       -0.01560
