32
2msa1a1dma_101.log	Energy: -953957.5274573
S         -1.75340       -1.24313       -0.11919
O         -2.80332       -0.67938       -1.01355
O         -1.81277       -0.65119        1.23848
O         -0.38977       -1.15078       -0.72118
H          0.27151        0.24403       -1.03453
C         -2.08082       -2.98550        0.02603
H         -2.02975       -3.42484       -0.97002
H         -1.32313       -3.41694        0.68039
H         -3.07536       -3.10790        0.45487
S          0.81111        2.09416        0.00240
O          1.88655        3.03297       -0.22008
O          0.81669        1.07806       -1.20557
O         -0.54721        2.66003        0.14352
H         -2.09446        2.10861        0.16881
C          1.12874        1.08900        1.43084
H          1.99122        0.44682        1.21912
H          1.31627        1.77859        2.25517
H          0.24501        0.47415        1.62031
N         -3.04806        1.67957        0.26967
H         -3.78298        2.37372        0.17343
H         -3.06974        1.21758        1.18159
H         -3.12792        0.89425       -0.42424
N          2.61617       -1.51463        0.18608
C          3.03276       -2.73663        0.85153
C          3.47551       -1.15664       -0.93239
H          1.65795       -1.61453       -0.13878
H          4.01103       -2.58504        1.32129
H          2.31866       -2.98979        1.64069
H          3.11987       -3.60179        0.16995
H          4.48060       -0.92882       -0.56039
H          3.56890       -1.95685       -1.68741
H          3.08351       -0.26121       -1.42081
