42
2msa2eda_504.log	Energy: -1072747.5007601
S         -2.35892        1.27615       -0.41818
O         -1.72324        2.09927        0.61864
O         -3.26105        0.20779        0.10795
O         -1.39644        0.69928       -1.41494
H         -0.03276        0.27324       -1.15559
C         -3.40460        2.35195       -1.38117
H         -2.77964        3.14089       -1.79984
H         -3.87026        1.76461       -2.17225
H         -4.15731        2.77048       -0.71267
S          1.39793       -1.41193       -0.87634
O          1.91928       -1.59581        0.47228
O          0.98567        0.06144       -1.15739
O          0.30134       -2.31958       -1.26802
H         -1.20064       -2.27764       -0.31709
C          2.75000       -1.56794       -2.01046
H          3.46833       -0.79528       -1.72173
H          3.17116       -2.56567       -1.88421
H          2.37739       -1.41807       -3.02315
H          3.94706        2.44181        1.76007
H          4.35647        2.78904        0.07406
H          2.18365        3.68749        0.46861
H          1.98022        2.25403       -0.55486
H          1.41353        2.39607        2.30620
H          0.37837        2.05367        1.09074
H          4.80089        0.45537        0.76932
H          3.18554        0.22198        0.86615
C          3.70048        2.18667        0.71368
C          2.25415        2.58835        0.44934
N          3.90823        0.77272        0.40655
N          1.34374        1.94386        1.39919
H         -2.90105       -2.14481        2.10175
H         -1.98297       -3.62795        1.75823
H         -0.78871       -1.98871        3.29409
H          0.13903       -2.47249        1.86947
H         -1.22198        0.11592        2.10143
H          0.36039       -0.19852        1.73978
H         -2.76829       -2.85718       -0.29500
H         -2.48680       -1.24508        0.06842
C         -2.00118       -2.54353        1.62613
C         -0.73434       -1.90159        2.19733
N         -2.11783       -2.23026        0.17290
N         -0.58946       -0.55821        1.68468
