32
2msa2ma_166.log	Energy: -953957.1415327
S          1.32102        0.63662       -0.77506
O          1.46220        1.21908        0.57451
O          0.31911        1.28656       -1.61957
O          1.04010       -0.89386       -0.66375
H          0.12416       -1.06011       -0.12611
C          2.90473        0.63241       -1.56047
H          3.22972        1.67148       -1.62157
H          3.57554        0.01990       -0.94549
H          2.78008        0.20584       -2.55593
S         -2.43057       -1.02477        0.09972
O         -3.31774       -2.09262        0.52915
O         -1.01528       -1.17208        0.62552
O         -2.90833        0.35900        0.41398
H         -1.81836        1.25507        1.07631
C         -2.28191       -1.09009       -1.67772
H         -1.89838       -2.07439       -1.94903
H         -3.27779       -0.94230       -2.09614
H         -1.60178       -0.30064       -2.00309
N          3.89473       -1.71063        0.48573
H          3.01547       -2.10535        0.16487
C          3.74425       -1.19259        1.84681
H          3.45241       -1.94796        2.59007
H          4.68790       -0.74260        2.16860
H          2.98574       -0.40578        1.84363
H          4.58727       -2.45090        0.45678
N         -1.09882        1.95364        1.45312
H         -1.25016        2.06121        2.45339
C         -1.22416        3.23571        0.72223
H         -0.49750        3.95268        1.10458
H         -1.02199        3.03265       -0.32937
H         -2.23723        3.61917        0.84085
H         -0.15172        1.55987        1.29743
