30
2msa1eda_156.log	Energy: -953184.3226766
S         -0.92938       -1.92996       -0.08413
O         -0.68897       -3.34468       -0.25084
O         -0.27663       -1.00876       -1.04299
O         -0.51838       -1.46389        1.37643
H          0.29218       -0.88576        1.35349
C         -2.66591       -1.59803       -0.07222
H         -3.04110       -1.87447       -1.05868
H         -3.10669       -2.23646        0.69432
H         -2.84919       -0.53859        0.14309
S          2.60627        0.38517        0.19060
O          3.98799        0.23718        0.57357
O          1.55475        0.18133        1.19719
O          2.33286       -0.58537       -1.03271
H          1.36356       -0.81124       -1.10240
C          2.35816        1.99724       -0.51757
H          2.51615        2.72834        0.27623
H          3.09106        2.12774       -1.31370
H          1.33861        2.05549       -0.90247
H         -2.82079        3.58400        0.28753
H         -2.56297        2.63282        1.75997
H         -0.49730        2.79225        0.42325
H         -1.03957        1.12821        0.59734
H         -1.06239        2.67711       -1.86325
H         -0.87249        1.03986       -1.62331
H         -4.56541        1.89114        0.67078
H         -3.73007        1.58557       -0.71059
C         -2.62325        2.56800        0.66827
C         -1.28276        2.08264        0.12365
N         -3.66331        1.60879        0.30389
N         -1.35586        1.87618       -1.32004
