42
2msa2eda_129.log	Energy: -1072768.1511366
S          2.00346        1.53500       -0.79716
O          3.29627        2.21265       -0.83395
O          1.17312        1.93943        0.39906
O          2.08536        0.04930       -0.88744
H          0.77013       -1.19651       -0.56603
C          1.05745        2.05812       -2.21782
H          0.95293        3.14296       -2.17002
H          1.61753        1.77283       -3.10912
H          0.08803        1.55792       -2.18690
S         -2.62291       -0.43515       -0.70031
O         -2.38015       -1.76880       -0.09079
O         -1.40886        0.12480       -1.33234
O         -3.23916        0.53067        0.26148
H         -2.05734        1.54522        0.81894
C         -3.84409       -0.67870       -1.97623
H         -4.74607       -1.07723       -1.51169
H         -4.04318        0.28467       -2.44579
H         -3.44060       -1.38545       -2.70177
H          0.94959       -3.82267        0.78895
H          0.74824       -3.71075       -0.97523
H          3.13970       -3.95267       -0.24171
H          2.84373       -2.51179       -1.22591
H          4.13652       -2.36751        1.03269
H          3.10578       -1.18067        0.58848
H         -0.59534       -2.02064       -0.02654
H          0.60197       -1.50945        1.03347
C          1.15370       -3.20991       -0.09230
C          2.65298       -2.97250       -0.24649
N          0.43123       -1.92899        0.08515
N          3.16045       -2.16206        0.85720
H         -0.40304        2.18098        3.21693
H         -2.12977        1.73387        3.20175
H         -0.98090       -0.27966        3.73564
H         -1.50364       -0.43341        2.07238
H          0.97772        0.49256        1.72080
H          1.18652       -0.31374        3.13661
H         -1.54143        3.07310        1.30182
H         -0.38387        1.98340        0.78489
C         -1.16520        1.58294        2.71065
C         -0.80081        0.09819        2.72551
N         -1.29689        2.08527        1.31312
N          0.57391       -0.21938        2.33577
