31
2msa1tma_09.log	Energy: -943130.9389934
S         -2.47190       -0.36728       -0.06180
O         -3.51247       -1.04892       -0.80571
O         -2.73886        0.96271        0.48081
O         -1.17158       -0.17343       -0.96266
C         -1.90414       -1.43369        1.24746
H         -1.00049       -1.01324        1.69224
H         -2.71940       -1.49741        1.96921
H         -1.68412       -2.41231        0.82074
N          0.84179        2.22350       -0.02385
C          0.25032        2.07393        1.33318
H         -0.75247        1.65776        1.23132
H          0.88264        1.39637        1.90845
H          0.19568        3.05946        1.80161
C          2.14727        2.92428        0.02867
H          2.80628        2.37287        0.69876
H          2.58213        2.93540       -0.97076
H          1.99564        3.94333        0.39093
C         -0.10081        2.86626       -0.97312
H          0.35034        2.86635       -1.96575
H         -1.02683        2.29356       -0.98465
H         -0.29069        3.89031       -0.64367
H          1.08541        1.26100       -0.37899
S          1.70060       -1.26301       -0.04030
O          1.42392       -0.98225        1.38050
O          2.06984       -0.02559       -0.79528
O          0.59919       -2.00631       -0.72578
H         -0.56582       -0.98831       -0.99301
C          3.11861       -2.33606       -0.12493
H          2.87312       -3.25885        0.40079
H          3.33307       -2.53450       -1.17485
H          3.95587       -1.82969        0.35549
