41
2msa1dma1tma_41.log	Energy: -1027944.4779920
S          2.33904       -0.32391       -0.40113
O          2.32133       -1.75838       -0.09289
O          3.02533        0.54787        0.56549
O          0.93036        0.20084       -0.65822
C          3.16743       -0.12665       -1.97048
H          4.19141       -0.48173       -1.85055
H          2.64002       -0.72269       -2.71566
H          3.15620        0.93037       -2.23708
S         -1.51014       -2.04356        0.11207
O         -2.88040       -2.45479       -0.11625
O         -1.21214       -1.18851        1.26413
O         -1.01326       -1.30585       -1.19966
H         -0.16179       -0.76725       -1.00630
C         -0.44986       -3.46657        0.19333
H         -0.72159       -4.01908        1.09368
H         -0.62894       -4.06736       -0.69830
H          0.58340       -3.11166        0.23688
N         -1.64074        1.95436       -1.24331
C         -0.72319        2.59864       -2.17234
C         -3.02984        2.32923       -1.46961
H         -1.55647        0.94703       -1.34432
H         -0.71848        3.68077       -1.99308
H          0.28393        2.21004       -2.00209
H         -0.98806        2.43810       -3.23102
H         -3.16693        3.39267       -1.24150
H         -3.36403        2.16303       -2.50704
H         -3.67923        1.75091       -0.80627
N         -0.02198        1.49756        1.68260
C          0.68553        2.73991        1.27998
H          1.70274        2.47187        0.99179
H          0.14889        3.16818        0.43341
H          0.68885        3.43227        2.12482
C         -1.44473        1.76081        2.01762
H         -1.90723        2.21492        1.14143
H         -1.92550        0.80964        2.23982
H         -1.47761        2.43070        2.88000
C          0.68527        0.79146        2.78485
H          0.17299       -0.15308        2.96297
H          1.71337        0.60874        2.46979
H          0.65755        1.42374        3.67522
H          0.01971        0.87545        0.85229
