34
2msa1a1eda_254.log	Energy: -988694.3075052
S          2.27021       -0.97526       -0.28105
O          1.96039       -2.21340        0.44645
O          3.05442        0.02821        0.47645
O          1.03730       -0.34944       -0.88425
C          3.28054       -1.42945       -1.68495
H          4.19054       -1.89401       -1.30413
H          2.71908       -2.13374       -2.29932
H          3.51681       -0.52694       -2.24899
S         -2.35794       -0.95024        0.22507
O         -1.77832       -0.17158        1.31413
O         -2.78132       -0.28353       -0.99156
O         -3.67605       -1.67927        0.83882
H         -3.69949       -1.50172        1.78982
C         -1.32691       -2.32605       -0.18244
H         -0.43582       -1.89778       -0.65077
H         -1.04892       -2.83996        0.73699
H         -1.88518       -2.96955       -0.86206
N          2.17576        1.82227        2.59853
H          2.82418        2.57903        2.78858
H          2.67071        1.10888        2.05203
H          1.91888        1.40976        3.48956
H          0.29533        3.84492       -0.01833
H          1.36791        2.75677       -0.94042
H         -0.63850        3.41466       -2.30839
H         -0.59546        1.67904       -1.98839
H         -2.53361        3.55899       -1.00643
H         -2.61657        1.90904       -1.09410
H          0.86743        1.96547        1.37560
H         -0.74943        1.78033        0.84078
C          0.37738        2.86313       -0.49267
C         -0.73589        2.65881       -1.52020
N          0.23268        1.82544        0.54739
N         -2.02993        2.69741       -0.84483
H          0.48419        0.90240        0.11726
