37
2msa1ma1eda_141.log	Energy: -1013362.1502884
S          2.53874       -0.54447       -0.20064
O          2.50441       -0.70819        1.26082
O          2.94217        0.80334       -0.66979
O          1.23766       -0.94819       -0.84935
C          3.75637       -1.67941       -0.83814
H          3.46743       -2.68879       -0.54455
H          3.78041       -1.58075       -1.92329
H          4.72018       -1.41366       -0.40343
S         -2.03600       -1.49689       -0.03793
O         -2.13875       -1.00909       -1.40820
O         -2.32806       -0.53575        1.02897
O         -0.64940       -2.18062        0.21363
H          0.15733       -1.66406       -0.20359
C         -3.10434       -2.90046        0.17560
H         -2.94638       -3.30711        1.17412
H         -4.12699       -2.53989        0.06150
H         -2.86287       -3.63500       -0.59183
N          0.10118        0.99728        1.95178
H         -0.76269        0.45962        1.88560
C          0.09408        1.86926        3.12723
H         -0.05595        1.32894        4.06960
H          1.04740        2.40119        3.19041
H         -0.70251        2.61298        3.02959
H          0.87111        0.32634        1.99964
H         -0.07515        2.24854       -2.42549
H         -0.32541        0.72665       -1.55143
H         -2.48923        1.92196       -1.84128
H         -2.06306        1.78874       -0.14200
H         -1.85952        4.21701       -1.76876
H         -2.55089        4.02294       -0.30400
H          1.54272        1.94471       -0.64839
H          0.50400        3.26331       -0.32222
C         -0.38466        1.81213       -1.47050
C         -1.78054        2.27273       -1.08180
N          0.57583        2.25082       -0.43019
N         -1.77482        3.72701       -0.88397
H          0.34130        1.78475        0.53073
