42
2msa2eda_356.log	Energy: -1072751.8371266
S         -0.66515       -1.99603        0.43515
O         -1.27835       -3.19717       -0.11899
O         -1.53810       -1.14025        1.26611
O         -0.02934       -1.11526       -0.65029
C          0.71148       -2.49110        1.45813
H          1.36487       -3.13224        0.86528
H          1.24382       -1.59683        1.78578
H          0.30389       -3.04224        2.30604
S          3.10477        0.07510       -0.53052
O          2.79814        0.20174        0.89728
O          2.85254        1.25454       -1.35305
O          2.40373       -1.18921       -1.12908
H          1.36598       -1.18788       -0.95436
C          4.80190       -0.41217       -0.72122
H          4.96872       -1.32089       -0.14394
H          4.99252       -0.57775       -1.78116
H          5.41206        0.40789       -0.34184
H          0.87594        2.11521       -0.77846
H         -0.52986        3.17793       -0.97874
H          1.24123        4.01790        0.65426
H         -0.38520        3.91982        1.34786
H          1.67116        1.84463        1.74193
H          0.99549        2.82402        2.89105
H         -0.65778        0.53673       -0.34077
H         -0.69758        1.22580        1.13736
C          0.00536        2.53823       -0.27353
C          0.44942        3.32189        0.96363
N         -0.88337        1.42570        0.14252
N          0.83900        2.37380        1.99867
H         -1.90949        1.64641        0.01252
H         -5.21842        1.28245       -1.53938
H         -3.63002        1.43938       -2.31583
H         -4.30871       -0.95207       -1.87425
H         -2.77596       -0.51371       -1.14484
H         -5.10990       -1.33605        0.21185
H         -3.59159       -1.08588        0.79817
H         -3.95451        2.91154       -0.35058
H         -4.06016        1.55107        0.56813
C         -4.13839        1.13943       -1.39278
C         -3.85492       -0.33491       -1.09048
N         -3.63671        1.95077       -0.27237
N         -4.34154       -0.67936        0.24427
