37
2msa1ma1eda_66.log	Energy: -1013369.9719869
S          2.11088       -1.27301        0.40708
O          1.52249       -2.36883       -0.40922
O          1.03074       -0.40770        0.98848
O          3.13810       -0.48168       -0.29263
H          0.99782        1.48169       -1.56235
C          2.90490       -2.06099        1.79458
H          2.15358       -2.62760        2.34468
H          3.67788       -2.72335        1.40431
H          3.34260       -1.28629        2.42421
S         -2.95012        0.52935        0.30653
O         -4.18737        1.26905        0.09335
O         -1.98189        0.63943       -0.86057
O         -3.09950       -0.89574        0.69747
H         -1.74693       -1.98938       -0.00141
C         -2.08324        1.31171        1.66659
H         -1.94295        2.36780        1.42742
H         -2.70546        1.21654        2.55706
H         -1.12837        0.80184        1.81495
N         -1.17670       -2.01740       -0.86356
H         -1.29444       -1.03720       -1.18171
C         -1.71917       -2.98415       -1.83728
H         -1.16149       -2.90761       -2.77040
H         -1.61781       -3.99204       -1.43549
H         -2.77133       -2.75888       -2.01081
H         -0.17048       -2.18997       -0.64520
H          2.80972        2.15602        0.70693
H          2.94277        3.81888        0.12191
H          0.56881        3.10313        0.83342
H          0.67852        3.73485       -0.83003
H          0.72647        0.86832       -0.02874
H         -0.53940        1.57775       -0.83433
H          3.69000        2.93151       -1.82683
H          3.42147        1.39334       -1.27143
C          2.52946        2.83249       -0.10799
C          1.00025        2.93738       -0.15605
N          3.01799        2.31963       -1.38550
N          0.49058        1.65551       -0.68639
