40
2msa1dma1eda_64.log	Energy: -1038036.6849644
S         -2.98444       -0.60432       -0.39950
O         -3.14334        0.05934        0.91251
O         -2.45147       -1.99008       -0.29859
O         -2.18291        0.22858       -1.34870
H         -1.10139        1.30345       -0.64425
C         -4.60387       -0.76439       -1.12646
H         -5.21066       -1.38154       -0.46370
H         -5.03485        0.23176       -1.22816
H         -4.49182       -1.23936       -2.10102
S          2.99168       -0.38217       -0.53302
O          3.53920        0.66271        0.35970
O          1.67104        0.02289       -1.11874
O          2.90416       -1.72440        0.09481
H          0.92218       -2.21734        0.45015
C          4.12000       -0.52832       -1.90640
H          4.20308        0.44598       -2.38821
H          5.08542       -0.84415       -1.51034
H          3.72455       -1.27154       -2.59882
N         -0.57153        2.03673       -0.11074
C         -1.56148        2.85726        0.61815
C          0.29886        2.80037       -1.03009
H          0.02959        1.54676        0.60381
H         -2.17071        3.40675       -0.10132
H         -2.20108        2.18703        1.19443
H         -1.03615        3.55914        1.26931
H         -0.31805        3.26279       -1.80242
H          0.82679        3.57176       -0.46538
H          1.01296        2.10168       -1.46622
H         -1.09169       -0.60750        1.90986
H         -0.32641       -2.09513        2.48165
H          0.77070       -0.31726        3.61421
H          1.92352       -0.91122        2.41839
H          1.04992        1.67319        2.71632
H          2.01041        1.08547        1.52431
H         -0.75488       -1.97018        0.09435
H          0.43277       -0.79284       -0.09527
C         -0.15715       -1.17511        1.91679
C          0.97733       -0.37326        2.54105
N          0.11922       -1.57979        0.51132
N          1.09437        0.98370        1.97406
