34
2msa1a1eda_144.log	Energy: -988703.0417970
S         -2.03714       -1.18790        0.15586
O         -1.72634       -0.90688       -1.25814
O         -3.28819       -0.58973        0.64640
O         -0.87346       -0.79877        1.05114
C         -2.18622       -2.95630        0.33389
H         -1.25117       -3.41446        0.00976
H         -2.38442       -3.17556        1.38309
H         -3.01391       -3.28686       -0.29399
S          2.35665       -0.71758       -0.14394
O          3.02869        0.25456        0.71738
O          1.66000       -0.17481       -1.31189
O          1.40882       -1.64276        0.67816
H          0.42013       -1.26280        0.81051
C          3.55696       -1.90804       -0.69014
H          4.30622       -1.36335       -1.26512
H          4.00605       -2.37039        0.18849
H          3.05057       -2.64629       -1.31094
N         -3.29861        2.11470       -0.66916
H         -3.69927        2.00767       -1.59601
H         -3.77568        2.88715       -0.21613
H         -3.51885        1.25663       -0.15276
H          1.39387        2.21096       -1.19840
H          0.11188        3.37824       -1.59853
H          1.57633        4.10821        0.34097
H         -0.13587        3.99556        0.77034
H          1.84981        1.91165        1.41515
H          0.89855        2.78118        2.45652
H         -0.40397        0.81628       -1.24550
H         -0.36105        1.24198        0.33877
C          0.48281        2.68987       -0.83627
C          0.74444        3.40521        0.49121
N         -0.51297        1.61844       -0.61419
N          0.96479        2.40341        1.52112
H         -1.51802        1.93874       -0.66767
