41
2msa1dma1tma_133.log	Energy: -1027936.8910887
S          1.75445        2.01356        0.13107
O          2.84691        1.04388        0.02040
O          1.13342        2.20574        1.43212
O          0.66954        1.70975       -0.96671
H          0.01665        0.93951       -0.69704
C          2.34536        3.57785       -0.47420
H          3.13101        3.90139        0.20935
H          2.74207        3.43753       -1.47922
H          1.51661        4.28506       -0.47110
S         -0.94188       -0.89672        0.85084
O         -1.73926       -2.12007        0.76122
O         -0.90017       -0.16506       -0.47629
O          0.45767       -1.11086        1.33523
H          1.47226       -1.56704        0.22523
C         -1.69419        0.22385        2.00403
H         -2.67795        0.48423        1.60174
H         -1.77213       -0.28944        2.96279
H         -1.04320        1.09677        2.08094
N         -3.95256        0.56137       -0.47577
C         -4.64100        1.65384       -1.13722
C         -4.63681       -0.71367       -0.62042
H         -3.00495        0.47394       -0.83301
H         -5.61089        1.82157       -0.65477
H         -4.05733        2.57396       -1.04146
H         -4.83097        1.47221       -2.21109
H         -5.59354       -0.67851       -0.08625
H         -4.85052       -0.97658       -1.67263
H         -4.02397       -1.50472       -0.18105
N          2.03382       -2.10596       -0.50520
C          3.44926       -2.11460       -0.06910
H          3.78908       -1.08139       -0.00201
H          3.50890       -2.58404        0.91334
H          4.04649       -2.67837       -0.79017
C          1.43027       -3.46091       -0.50932
H          1.54015       -3.89728        0.48345
H          0.36678       -3.36854       -0.73444
H          1.93311       -4.07950       -1.25634
C          1.85635       -1.42643       -1.81299
H          0.78734       -1.31806       -2.00099
H          2.31358       -0.43983       -1.74845
H          2.33124       -2.02674       -2.59305
