40
2msa1dma1eda_437.log	Energy: -1038012.4790690
S         -2.19374        1.28824       -0.33968
O         -1.50484        0.99558        0.93105
O         -3.63580        1.18973       -0.37134
O         -1.61842        0.34703       -1.45508
H         -0.63229        0.10759       -1.30596
C         -1.69675        2.92012       -0.84134
H         -2.18564        3.62106       -0.16323
H         -0.61026        2.99597       -0.74930
H         -2.03584        3.07854       -1.86502
S          1.79289       -1.17254       -0.85833
O          3.07913       -0.99072       -1.52326
O          0.84856       -0.02017       -1.12901
O          1.89682       -1.37625        0.62396
H          1.43516       -0.10918        1.44462
C          0.98606       -2.61897       -1.49985
H          0.86624       -2.48173       -2.57508
H          1.63093       -3.47353       -1.29176
H          0.02100       -2.70576       -0.98695
N         -1.44304       -2.26719        0.71297
C         -0.84704       -3.11044        1.73568
C         -2.87705       -2.46765        0.56842
H         -1.26868       -1.29062        0.92958
H         -0.95892       -4.16273        1.45010
H          0.22267       -2.89337        1.80642
H         -1.30963       -2.98926        2.73203
H         -3.06621       -3.47798        0.18866
H         -3.43152       -2.35168        1.51551
H         -3.27709       -1.75263       -0.15436
H          1.66779        2.71143        2.46349
H          2.87648        1.42851        2.74454
H          3.52511        2.88826        0.87287
H          3.29101        1.22951        0.32700
H          2.15627        3.34782       -0.83143
H          1.50719        1.84154       -0.87987
H          0.66491        0.53287        2.80938
H          0.27722        1.10217        1.32242
C          2.12916        1.81337        2.04600
C          2.76584        2.12079        0.69473
N          1.06835        0.78087        1.90789
N          1.76938        2.60734       -0.25914
