32
2msa1a1dma_95.log	Energy: -953958.0366373
S          1.00832       -1.59080       -0.37272
O          0.59051       -0.80658        0.85343
O          0.65391       -0.90590       -1.61955
O          0.47285       -2.98150       -0.25402
H         -0.83381       -2.89441        0.67401
C          2.77853       -1.70685       -0.29052
H          3.16958       -0.68451       -0.28348
H          3.04473       -2.23327        0.62616
H          3.11353       -2.26056       -1.16798
S         -2.27655        1.00476       -0.01152
O         -3.19862        2.04855        0.37361
O         -2.70671       -0.39706        0.16102
O         -0.93827        1.22212        0.78958
H         -0.32468        0.40636        0.75495
C         -1.79506        1.20409       -1.70799
H         -2.69020        1.05866       -2.31372
H         -1.40809        2.21671       -1.82426
H         -1.03035        0.45651       -1.93433
N         -1.61286       -2.59278        1.33848
H         -2.08017       -1.75702        0.91563
H         -1.16687       -2.29725        2.20483
H         -2.28477       -3.33466        1.51314
N          2.68339        1.59474        0.37210
C          2.00466        2.19623       -0.76705
C          3.36263        2.57548        1.20253
H          2.00693        1.08431        0.93170
H          2.74831        2.64379       -1.43579
H          1.47312        1.42023       -1.32452
H          1.28630        2.98357       -0.47974
H          4.17567        3.03714        0.63143
H          2.70029        3.38403        1.55835
H          3.80451        2.08255        2.07299
