38
2msa2dma_115.log	Energy: -1003282.0017890
S          0.25582        1.51548       -0.14225
O         -0.23445        0.73047       -1.31131
O          1.63994        1.99325       -0.31770
O          0.10022        0.73480        1.13370
H          1.51475       -0.10086        1.31469
C         -0.82029        2.92230        0.00471
H         -0.72299        3.50486       -0.91168
H         -1.83819        2.54458        0.11825
H         -0.50554        3.50375        0.87141
S         -3.27780       -0.58592       -0.03439
O         -4.42161       -1.42542       -0.32854
O         -3.39861        0.86576       -0.10491
O         -2.09505       -1.05959       -0.98363
H         -1.41254       -0.32899       -1.10817
C         -2.66049       -1.00293        1.58427
H         -3.41986       -0.69743        2.30525
H         -2.50892       -2.08189        1.62287
H         -1.72793       -0.45529        1.73588
N          2.45215       -0.58054        1.36436
C          2.35744       -1.76914        2.22851
C          3.46061        0.41064        1.79109
H          2.69066       -0.89687        0.36624
H          2.08732       -1.46857        3.24249
H          1.58933       -2.43438        1.83178
H          3.31821       -2.28823        2.24590
H          3.25435        0.72316        2.81644
H          4.45538       -0.03716        1.73391
H          3.38157        1.26859        1.12208
N          3.09321       -1.38039       -1.21656
C          3.63249       -0.18940       -1.88856
C          1.85690       -1.85966       -1.85166
H          3.78795       -2.12095       -1.25549
H          2.93138        0.63902       -1.75690
H          4.58456        0.08785       -1.42733
H          3.79453       -0.35674       -2.96226
H          1.09546       -1.07859       -1.78355
H          2.00606       -2.10751       -2.91143
H          1.49526       -2.74988       -1.32987
