32
2msa1a1dma_50.log	Energy: -953967.7975283
S          1.12261       -1.68728       -0.08539
O          2.24632       -1.01923        0.62798
O          0.74358       -1.02574       -1.34590
O         -0.03804       -1.87448        0.84489
H         -1.46876       -1.42280        0.57546
C          1.69012       -3.32720       -0.48932
H          2.55438       -3.23337       -1.14708
H          1.95918       -3.83371        0.43736
H          0.87638       -3.84851       -0.99393
S         -2.56497        0.38611        0.05643
O         -3.94489        0.78089        0.23512
O         -2.43923       -1.12973        0.45217
O         -1.52709        1.15928        0.75864
H         -0.00981        0.93642        1.64388
C         -2.15353        0.39864       -1.67293
H         -2.89997       -0.19999       -2.19530
H         -2.19188        1.43621       -2.00766
H         -1.15233       -0.02541       -1.78733
N          0.98086        1.04656        1.92596
H          1.04816        1.24499        2.91897
H          1.40109        1.82435        1.31796
H          1.49304        0.17445        1.67127
N          2.05157        2.69850        0.00077
C          1.10353        2.43793       -1.09008
C          3.37254        2.11863       -0.26558
H          2.14175        3.70129        0.13273
H          0.98977        1.35614       -1.21161
H          0.12902        2.86078       -0.83457
H          1.44532        2.85903       -2.04619
H          3.27692        1.02905       -0.29608
H          3.79730        2.46319       -1.21900
H          4.06003        2.38517        0.54172
