42
2msa2eda_484.log	Energy: -1072746.2322622
S         -0.44167        2.39256       -0.55797
O         -0.25825        2.82121        0.82044
O         -1.77291        1.90319       -0.95181
O          0.65160        1.36067       -0.97554
H          0.33159        0.37562       -1.10082
C         -0.02635        3.75647       -1.61851
H          1.00543        4.04043       -1.41181
H         -0.14769        3.44112       -2.65423
H         -0.70684        4.57250       -1.37409
S         -0.09635       -2.18840       -0.59430
O          0.56561       -2.01213        0.70742
O         -0.00376       -0.97501       -1.47759
O         -1.51420       -2.64161       -0.49883
H         -2.54680       -1.34236       -0.43257
C          0.78303       -3.46760       -1.46456
H          1.82814       -3.16256       -1.54278
H          0.69571       -4.38563       -0.88313
H          0.33366       -3.58684       -2.45019
H          4.43951       -0.73876        1.60498
H          5.10128        0.09234        0.19589
H          3.98519        1.69901        1.64425
H          3.13124        1.57028        0.09406
H          1.56176        1.51008        1.87037
H          1.62452        0.00629        1.26964
H          2.69856       -1.59230        0.29573
H          3.11035       -0.69476       -1.00453
C          4.16783       -0.21593        0.68173
C          3.36076        1.03535        1.03321
N          3.48680       -1.17251       -0.18975
N          2.16156        0.69364        1.79359
H         -4.02337        0.55786        1.32291
H         -4.39665       -1.18122        1.23903
H         -2.80409       -0.61718        3.12348
H         -2.14960       -1.78201        1.96358
H         -1.29788        1.00222        2.19480
H         -0.42813       -0.38390        1.92576
H         -3.83981       -0.37034       -0.93981
H         -2.43613        0.33585       -0.39469
C         -3.60379       -0.43568        1.14383
C         -2.44153       -0.73589        2.09280
N         -3.09383       -0.45804       -0.25389
N         -1.30398        0.09360        1.74674
