38
2msa2dma_185.log	Energy: -1003274.5696860
S          0.21285       -2.02048       -0.55575
O          1.28509       -3.00137       -0.43902
O          0.20019       -1.13875       -1.71709
O          0.27998       -1.14799        0.76426
H         -0.07798       -0.17852        0.64939
C         -1.35801       -2.83258       -0.42646
H         -1.48092       -3.43263       -1.32912
H         -1.33705       -3.46738        0.45974
H         -2.12644       -2.05126       -0.34603
S          0.07390        2.25015       -0.24197
O         -0.16138        3.60905        0.22440
O         -0.52075        1.20491        0.67151
O          1.51309        1.92568       -0.50939
H          2.43621        0.90788        0.16310
C         -0.75000        2.03266       -1.80670
H         -1.81077        2.23665       -1.65365
H         -0.32466        2.74736       -2.51180
H         -0.58642        1.00444       -2.13252
N          3.28122        0.41658        0.60913
C          3.74871       -0.70188       -0.24741
C          2.95278        0.02546        2.00190
H          3.99236        1.14753        0.62536
H          2.99558       -1.49098       -0.24816
H          3.88395       -0.32662       -1.26166
H          4.69082       -1.08903        0.14548
H          2.17383       -0.73513        1.96170
H          3.84722       -0.36307        2.49188
H          2.57842        0.90402        2.52810
N         -3.15065       -0.24900        0.45799
C         -3.30718       -0.73733        1.81890
C         -4.37724        0.30951       -0.08513
H         -2.41515        0.45407        0.45001
H         -4.00640       -1.58216        1.82951
H         -2.34150       -1.09117        2.19225
H         -3.68850        0.02486        2.51923
H         -5.13345       -0.47847       -0.17751
H         -4.80568        1.11487        0.53620
H         -4.18978        0.70945       -1.08572
