37
2msa1ma1eda_130.log	Energy: -1013361.1165042
S         -2.25047       -0.47861       -0.58198
O         -1.87856        0.91257       -0.86968
O         -2.33114       -0.84981        0.82669
O         -1.32905       -1.46076       -1.36956
H         -0.31435       -1.40000       -1.06391
C         -3.80220       -0.82223       -1.37579
H         -4.54761       -0.17582       -0.91176
H         -3.70182       -0.60127       -2.43790
H         -4.04523       -1.87164       -1.21197
S          1.59897       -1.49439        0.67251
O          2.98487       -1.94496        0.64333
O          1.04272       -1.30096       -0.73091
O          1.34774       -0.26577        1.47483
H          0.95051        1.05634        0.51669
C          0.58897       -2.76866        1.40307
H          0.69784       -3.67406        0.80541
H          0.95575       -2.93301        2.41669
H         -0.44634       -2.42220        1.41908
N         -1.37970        2.96211        1.31567
H         -2.05779        2.60311        0.64688
C         -1.35581        2.09898        2.50608
H         -0.57712        2.44559        3.19037
H         -2.31076        2.07233        3.04429
H         -1.11235        1.07804        2.20224
H         -1.64879        3.90959        1.55751
H          1.82880        3.42194       -1.04832
H          2.54078        2.85066        0.48340
H          3.80656        2.10246       -1.59631
H          3.29479        0.77765       -0.55352
H          2.67164        1.02555       -3.21335
H          1.90579        0.03318       -2.14323
H          0.07328        2.49456        0.38398
H          0.33822        1.52551       -0.96006
C          2.05682        2.53918       -0.44527
C          2.92982        1.55869       -1.23186
N          0.77797        1.88205       -0.10483
N          2.16229        0.99744       -2.34080
