35
2msa1ma1dma_128.log	Energy: -978623.0562178
S          1.52155       -1.56553        0.06707
O          2.03241       -0.70736        1.13614
O          1.31649       -0.90693       -1.23014
O          0.23570       -2.31704        0.50792
H         -0.59660       -1.64254        0.65905
C          2.63084       -2.93394       -0.15644
H          3.58270       -2.51904       -0.48903
H          2.74285       -3.44305        0.80033
H          2.21343       -3.59971       -0.91118
S         -2.52095       -0.20386       -0.19736
O         -3.92579       -0.45674        0.08726
O         -1.59260       -0.75008        0.87540
O         -2.16430        1.22471       -0.43638
H         -1.14092        1.76893        0.77049
C         -2.08491       -1.08001       -1.68971
H         -2.30204       -2.13775       -1.53592
H         -2.70206       -0.67950       -2.49441
H         -1.02357       -0.92663       -1.89280
N         -0.36611        2.21291        1.32491
H          0.46662        2.21641        0.62501
C         -0.05325        1.46288        2.56278
H          0.63739        2.04677        3.17299
H         -0.97228        1.26307        3.11296
H          0.41652        0.52186        2.28169
H         -0.65197        3.16850        1.52415
N          1.49915        2.07066       -0.65147
C          2.90938        2.29044       -0.34061
C          0.99722        2.92529       -1.72607
H          1.37901        1.09393       -0.92556
H          3.04414        3.29363        0.07852
H          3.22517        1.55236        0.39999
H          3.55310        2.20225       -1.22793
H          1.07910        3.97655       -1.42848
H          1.55400        2.79418       -2.66461
H         -0.05638        2.69484       -1.90607
