37
2msa1ma1eda_464.log	Energy: -1013351.5850935
S          1.16413        1.47462       -0.56008
O          0.61148        0.18298       -1.17986
O          2.60117        1.58012       -0.85241
O          0.81788        1.52215        0.87148
H          1.78342       -0.84188        1.48585
C          0.30863        2.78572       -1.40171
H          0.48316        2.66875       -2.47135
H         -0.75200        2.71143       -1.13855
H          0.72940        3.72583       -1.04251
S         -2.15152       -1.57584       -0.04825
O         -2.70144       -0.81268        1.06105
O         -1.04459       -2.49324        0.26064
O         -1.75714       -0.64469       -1.24473
H         -0.80598       -0.23572       -1.17459
C         -3.45323       -2.50410       -0.82071
H         -3.83692       -3.19622       -0.07064
H         -4.22802       -1.80426       -1.13269
H         -3.03911       -3.04032       -1.67357
N         -2.19396        2.31725        0.69994
H         -2.71307        1.45049        0.80277
C         -2.89231        3.42145        1.34786
H         -3.07532        3.28144        2.42450
H         -2.31448        4.34314        1.22461
H         -3.85975        3.57911        0.86087
H         -1.29124        2.15179        1.13946
H          3.60436       -0.84386       -0.87836
H          4.77705       -1.88610       -0.06455
H          2.48436       -2.98014       -0.41121
H          2.99658       -2.92260        1.29576
H          1.19735       -0.97197       -0.05811
H          0.70850       -2.08481        1.04586
H          4.82220       -0.34195        1.61786
H          3.77797        0.60855        0.74938
C          3.84496       -1.32861        0.07370
C          2.73060       -2.32054        0.42330
N          3.94024       -0.32233        1.12520
N          1.52502       -1.53089        0.76606
