44
2msa2tma_20.log	Energy: -1052601.8040930
S         -3.10238       -1.13905       -0.38560
O         -4.51052       -1.42033       -0.67282
O         -2.80067       -0.81680        1.03465
O         -2.52256       -0.06167       -1.27694
H         -2.15099        1.12473       -0.42852
C         -2.16213       -2.60069       -0.79336
H         -2.49936       -3.40638       -0.13974
H         -2.36531       -2.84665       -1.83620
H         -1.10135       -2.38467       -0.64962
S          1.33796       -0.66042        0.72816
O          1.02256       -1.50714       -0.42995
O          1.15446        0.79648        0.48505
O          2.74412       -0.91510        1.23954
H          3.67597       -0.33776        0.26458
C          0.27153       -1.13016        2.07094
H         -0.76748       -0.98868        1.75292
H          0.46174       -2.18151        2.28878
H          0.51458       -0.51038        2.93485
N          4.31827        0.14672       -0.48579
C          4.33626        1.58479       -0.13462
H          3.30049        1.92269       -0.06751
H          4.81359        1.70375        0.83881
H          4.88782        2.14446       -0.89488
C          5.65304       -0.47891       -0.40308
H          6.04728       -0.34410        0.60484
H          5.55312       -1.54505       -0.60949
H          6.32658       -0.01914       -1.13140
C          3.67525       -0.08482       -1.80269
H          3.54468       -1.15720       -1.94765
H          2.68971        0.38068       -1.79440
H          4.30074        0.34141       -2.59167
N         -2.08253        2.11963        0.00601
C         -1.68604        2.02921        1.43063
H         -2.35320        1.31872        1.91919
H         -0.66008        1.66222        1.47377
H         -1.75848        3.02261        1.88399
C         -1.08609        2.85297       -0.80275
H         -0.12562        2.34900       -0.68380
H         -1.39626        2.82182       -1.84839
H         -1.02411        3.88946       -0.45849
C         -3.45003        2.66355       -0.14598
H         -3.72972        2.61850       -1.19875
H         -4.13345        2.03553        0.42690
H         -3.48032        3.69400        0.21860
