32
2msa2ma_99.log	Energy: -953959.9855186
S         -2.16102       -0.23522       -0.47559
O         -3.33387       -1.06576       -0.66339
O         -1.03649       -0.81612       -1.41155
O         -1.62062       -0.12437        0.89483
H         -0.51758       -1.28397        1.50427
C         -2.44324        1.40812       -1.06866
H         -2.65139        1.34260       -2.13670
H         -3.31297        1.78788       -0.52993
H         -1.55579        2.01854       -0.83825
S          2.23361        0.00047       -0.26627
O          2.22297       -1.44345        0.12761
O          2.12008        0.90763        0.88446
O          1.22612        0.28062       -1.33730
H         -0.12295       -0.33999       -1.34085
C          3.81448        0.27243       -1.03772
H          4.58725        0.08402       -0.29239
H          3.90821       -0.41413       -1.87880
H          3.84917        1.30798       -1.37646
N         -0.11969        3.06075        0.41316
H          0.62392        2.36933        0.49550
C         -0.82327        3.18489        1.68802
H         -0.18072        3.45741        2.53825
H         -1.61092        3.94091        1.60281
H         -1.30246        2.22891        1.91763
H          0.32222        3.93866        0.16251
N          0.13495       -2.08933        1.62383
H          1.02968       -1.82676        1.11184
C         -0.46186       -3.29920        1.00930
H          0.23148       -4.13385        1.10858
H         -1.41132       -3.52743        1.49288
H         -0.63238       -3.08621       -0.04607
H          0.33607       -2.21351        2.61309
