35
2msa1ma1dma_176.log	Energy: -978623.0212843
S         -1.20894       -1.63309       -0.25411
O         -2.41169       -2.40781       -0.48893
O         -1.12812       -0.31439       -0.90905
O          0.02926       -2.49001       -0.69387
H          0.87756       -1.92485       -0.75689
C         -0.98428       -1.39937        1.49077
H         -1.78385       -0.72494        1.80885
H         -1.07254       -2.37656        1.96608
H          0.00658       -0.96630        1.65288
S          2.60302        0.00067        0.05954
O          2.18507       -1.10407       -0.85060
O          1.88103       -0.01697        1.35093
O          2.53320        1.33794       -0.59828
H          0.98935        1.94949       -0.36603
C          4.32770       -0.28851        0.39505
H          4.41859       -1.26452        0.87184
H          4.86438       -0.27037       -0.55338
H          4.68119        0.50138        1.05773
N         -3.80805        0.37467        0.86433
H         -3.88559       -0.55363        0.45566
C         -3.92156        1.38474       -0.18607
H         -4.88485        1.39116       -0.71540
H         -3.77170        2.38035        0.24731
H         -3.13392        1.20361       -0.92257
H         -4.56661        0.46651        1.53188
N         -0.04744        2.07883       -0.24086
C         -0.55625        3.09162       -1.18527
C         -0.36346        2.33803        1.18147
H         -0.44481        1.14887       -0.49171
H         -0.06926        4.04757       -0.98674
H         -0.32994        2.76725       -2.20100
H         -1.63549        3.19205       -1.06127
H         -0.08345        3.36252        1.43246
H         -1.43265        2.18214        1.34097
H          0.21711        1.63581        1.78105
