40
2msa1dma1eda_137.log	Energy: -1038022.4711345
S         -1.92967       -1.51622        0.68729
O         -3.30631       -1.88845        0.93196
O         -1.56984       -0.09789        0.84842
O         -1.56381       -1.98535       -0.76672
C         -0.84415       -2.46723        1.72468
H         -1.07695       -2.20539        2.75784
H         -1.04754       -3.52233        1.54132
H          0.18569       -2.19838        1.47280
S          1.91416       -0.82735       -0.89374
O          1.78781       -0.97894        0.57826
O          2.14869        0.57607       -1.30120
O          0.76614       -1.45475       -1.61746
H         -0.61444       -1.73523       -1.05648
C          3.34608       -1.75716       -1.40411
H          4.21690       -1.33957       -0.89848
H          3.19447       -2.79956       -1.12406
H          3.44531       -1.65835       -2.48508
N         -1.38115        2.62888       -1.69429
C         -2.74096        2.57464       -1.15197
C         -1.07998        1.48439       -2.56252
H         -1.25809        3.48872       -2.21975
H         -2.82082        1.71080       -0.48510
H         -2.94228        3.48045       -0.57363
H         -3.50660        2.47875       -1.93526
H         -1.18454        0.56116       -1.98690
H         -1.75539        1.42417       -3.42732
H         -0.04515        1.54124       -2.90690
H          0.97305        3.57261        1.41483
H         -0.60530        2.91802        1.93164
H          1.17095        2.47364        3.60414
H          0.48418        0.97852        2.96063
H          3.07753        1.36550        3.07178
H          2.44893        0.60744        1.75899
H         -0.26222        2.35469       -0.38126
H          1.23506        1.64749       -0.04071
C          0.41261        2.65949        1.62715
C          1.11401        1.84642        2.70910
N          0.31743        1.88157        0.37332
N          2.45753        1.48338        2.28066
H         -0.16843        0.98709        0.55232
