30
2msa1eda_39.log	Energy: -953203.5217806
S         -2.40379       -0.19606        0.04715
O         -1.87243        0.84469        0.97344
O         -1.85040       -1.55319        0.35227
O         -2.24028        0.19355       -1.36846
C         -4.14354       -0.34615        0.38638
H         -4.60765        0.62198        0.19814
H         -4.55011       -1.10736       -0.27936
H         -4.26329       -0.63744        1.42969
S          1.64887       -1.51712        0.06175
O          1.75932       -1.33472        1.49868
O          1.73453       -0.28433       -0.75026
O          0.39474       -2.34205       -0.34644
H         -0.53325       -1.95806       -0.03145
C          2.91858       -2.61358       -0.51855
H          3.87408       -2.12833       -0.31820
H          2.83553       -3.55007        0.03222
H          2.77764       -2.77017       -1.58735
H          1.09690        3.48443       -1.47223
H         -0.26059        3.91695       -0.39642
H          1.77029        4.26718        0.82855
H          0.99282        2.83643        1.51246
H          3.46072        2.68958        0.99930
H          2.61063        1.50388        0.26279
H         -0.67292        1.79263       -1.54025
H          0.66700        1.11756       -0.84457
C          0.56186        3.21655       -0.55897
C          1.52053        3.22165        0.62468
N         -0.03871        1.87138       -0.74086
N          2.74964        2.51085        0.30033
H         -0.64403        1.59336        0.07301
