34
2msa1a1eda_172.log	Energy: -988700.5781007
S          1.23112       -1.94386       -0.16909
O          2.59070       -1.42855       -0.00859
O          0.37382       -0.96999       -0.95374
O          0.55231       -2.34045        1.09144
H          0.13312       -1.01163        2.13911
C          1.30303       -3.41520       -1.17265
H          1.75797       -3.15130       -2.12738
H          1.91381       -4.14754       -0.64416
H          0.28870       -3.78915       -1.31285
S         -2.57634        0.50891       -0.14986
O         -1.77420        1.66672       -0.52856
O         -2.71140        0.25113        1.29092
O         -2.08954       -0.77717       -0.88831
H         -1.03913       -0.88978       -0.88984
C         -4.20949        0.65868       -0.82905
H         -4.67457        1.52124       -0.35124
H         -4.11796        0.81120       -1.90386
H         -4.76052       -0.25400       -0.60402
N         -0.14863       -0.07114        2.49213
H         -1.15821        0.04141        2.31869
H          0.37305        0.66702        1.85947
H          0.07070        0.03343        3.47746
H          2.61250        2.56386        1.56373
H          2.97116        0.89277        1.05414
H          4.12267        2.58069       -0.34976
H          3.04345        1.53179       -1.27529
H          2.95717        4.08231       -1.62123
H          1.52285        3.33264       -1.45677
H          0.49991        2.39091        0.50101
H          0.84629        0.91965       -0.11888
C          2.46647        1.82153        0.77199
C          3.06948        2.34083       -0.52958
N          1.02838        1.53942        0.67456
N          2.38456        3.55816       -0.97022
