42
2msa2eda_100.log	Energy: -1072767.1150808
S         -2.30698        1.50885       -0.48162
O         -2.54590        0.62119       -1.63337
O         -1.68404        2.80654       -0.77187
O         -1.50087        0.76837        0.58604
C         -3.88900        1.80229        0.28614
H         -4.52103        2.31414       -0.44031
H         -4.31177        0.83372        0.55990
H         -3.73516        2.42595        1.16702
S          2.27592       -1.67306       -0.12404
O          1.27146       -2.72095        0.21612
O          2.89956       -1.02131        1.03793
O          1.69278       -0.68284       -1.08839
C          3.57458       -2.51769       -1.01033
H          4.32592       -1.78216       -1.29806
H          4.00387       -3.26426       -0.34173
H          3.14211       -2.99181       -1.89133
H          1.53659        2.73893        1.91771
H          2.11534        1.04459        1.85921
H          4.01281        2.63326        1.56078
H          3.76019        1.59816        0.15571
H          3.04159        4.43614        0.33377
H          3.86908        3.65765       -0.84460
H          0.09955        1.46500        0.48117
H          1.02454        2.50454       -0.45233
C          1.99282        1.96746        1.29092
C          3.32992        2.42692        0.72601
N          1.06657        1.69190        0.16945
N          3.11866        3.56074       -0.17233
H          1.38597        0.86047       -0.38097
H         -3.17005       -1.95333       -0.95475
H         -2.18637       -3.44597       -0.98908
H         -3.41777       -3.52942        1.04016
H         -1.76095       -3.11830        1.49317
H         -3.50551       -1.73960        2.57535
H         -2.57062       -0.77040        1.63916
H         -0.98043       -1.39330       -1.60270
H         -1.20284       -0.78059       -0.11305
C         -2.35317       -2.49653       -0.47523
C         -2.66682       -2.73463        0.99587
N         -1.12157       -1.68145       -0.63438
N         -3.23441       -1.54248        1.61881
H         -0.25659       -2.17219       -0.30654
