37
2msa1ma1eda_271.log	Energy: -1013359.0933258
S          0.95994        1.64590       -0.32795
O         -0.27374        1.22925       -1.08365
O          2.17618        1.52194       -1.13813
O          1.02677        0.93718        0.98129
C          0.73473        3.37197        0.05531
H          0.66135        3.91603       -0.88652
H         -0.17987        3.47953        0.63918
H          1.60023        3.70624        0.62766
S         -3.11763       -0.29993        0.15541
O         -2.50996       -0.97393        1.31220
O         -3.08275       -1.02404       -1.10665
O         -2.52562        1.14158       -0.00385
H         -1.58070        1.16129       -0.45131
C         -4.79130        0.11025        0.58015
H         -5.31132       -0.83292        0.74982
H         -4.78083        0.71531        1.48622
H         -5.23327        0.65210       -0.25529
N          4.26465       -0.41839        0.14710
H          5.20886       -0.40707       -0.22400
C          4.26351       -0.04783        1.56352
H          4.77000        0.90396        1.77803
H          3.22740        0.04647        1.89709
H          4.74663       -0.83374        2.15273
H          3.72691        0.26740       -0.38285
H         -0.33550       -3.03342       -0.75378
H         -0.44144       -1.33358       -1.26535
H          1.62342       -2.59274       -2.16500
H          1.96598       -1.08909       -1.31691
H          2.70809       -3.71494       -0.47236
H          3.26698       -2.21310       -0.01204
H         -0.77186       -1.68510        1.14825
H          0.85486       -2.26380        1.18735
C          0.14990       -2.05575       -0.70165
C          1.60091       -2.11207       -1.18091
N          0.16750       -1.65031        0.72958
N          2.43258       -2.78498       -0.18360
H          0.51035       -0.66393        0.84000
