40
2msa1dma1eda_432.log	Energy: -1038011.7820629
S          1.45689       -1.76719       -0.56983
O          0.37267       -2.23302        0.33416
O          2.65964       -1.29555        0.14582
O          0.95669       -0.76109       -1.56049
C          1.94512       -3.18917       -1.53466
H          2.31678       -3.94871       -0.84645
H          1.07240       -3.55541       -2.07580
H          2.72764       -2.88045       -2.22794
S         -2.92530        0.28012       -0.52609
O         -1.87770        1.15778       -0.04005
O         -3.97291        0.79569       -1.39180
O         -3.66213       -0.31753        0.79970
H         -4.61770       -0.24921        0.66404
C         -2.20429       -1.18037       -1.21346
H         -1.59957       -0.86508       -2.06560
H         -1.54287       -1.63472       -0.46952
H         -3.01285       -1.84512       -1.51740
N          0.32200        0.01120        2.35619
C         -0.82338        0.37194        3.18433
C          1.55248       -0.18341        3.12057
H          0.12830       -0.85287        1.84414
H         -0.64073        1.34177        3.66013
H         -1.71320        0.46045        2.55784
H         -1.01690       -0.36518        3.97858
H          1.86713        0.76992        3.56101
H          1.42885       -0.91094        3.93694
H          2.33084       -0.54414        2.44354
H          2.44225        2.57311        0.98611
H          2.91594        1.01785        0.24971
H          3.70166        2.92049       -1.16260
H          2.50081        1.93533       -2.00353
H          2.02619        4.58084       -0.84193
H          1.64354        4.02945       -2.33372
H          0.59902        1.01608        1.02012
H          0.28001        2.26356       -0.13924
C          2.30563        1.91483        0.12209
C          2.64016        2.63764       -1.17542
N          0.89397        1.48165        0.09410
N          1.72395        3.76318       -1.36023
H          0.77308        0.74481       -0.63356
