32
2msa1a1dma_161.log	Energy: -953948.1868847
S         -2.28970       -1.27852        0.11213
O         -3.12390       -2.41433        0.44609
O         -1.51938       -1.28356       -1.12922
O         -1.26691       -1.07294        1.32766
H         -0.38752       -0.77530        0.99020
C         -3.24997        0.21109        0.17833
H         -3.97451        0.15784       -0.63567
H         -3.75812        0.23747        1.14263
H         -2.55678        1.05568        0.05547
S          1.89049       -0.17605       -0.69338
O          1.55655        1.05827       -1.37936
O          1.25062       -0.42273        0.61599
O          3.44097       -0.26384       -0.46919
H          3.67573       -0.40420        0.54521
C          1.56218       -1.55055       -1.76202
H          0.47994       -1.58150       -1.90613
H          2.09171       -1.37784       -2.69897
H          1.91392       -2.45709       -1.26992
N          3.89211       -0.60098        2.05913
H          2.93892       -0.68588        2.40631
H          4.32521        0.19718        2.51333
H          4.40648       -1.43421        2.32676
N         -0.90434        2.47290       -0.04645
C         -0.35243        2.66288        1.28427
C         -1.42764        3.70107       -0.62044
H         -0.18684        2.08682       -0.65370
H         -1.15459        2.92998        1.98232
H          0.09897        1.72896        1.62787
H          0.41282        3.45765        1.33028
H         -2.28750        4.04472       -0.03316
H         -0.69005        4.52180       -0.64689
H         -1.77130        3.51373       -1.64135
