28
2msa1dma_44.log	Energy: -918454.6156268
S          3.45835       -0.04497        0.02293
O          3.06293       -0.67581        1.27480
O          3.19405       -0.70062       -1.23989
O          5.06868        0.20160        0.12637
H          5.37667       -0.23715        0.93201
C          2.87274        1.62448       -0.04500
H          1.78240        1.56271       -0.13560
H          3.16375        2.12794        0.87633
H          3.31648        2.10014       -0.91951
S         -1.07214       -0.09676       -0.10603
O         -0.23017        1.10490       -0.14926
O         -1.97657       -0.24176       -1.29325
O         -1.87710       -0.21280        1.16035
H         -3.46669       -0.05412        0.77765
C          0.00858       -1.51147       -0.12524
H          0.61243       -1.46687       -1.03259
H          0.65316       -1.46099        0.75349
H         -0.60315       -2.41363       -0.10854
N         -4.23484        0.07962        0.05800
C         -4.69594        1.48060        0.08278
C         -5.29061       -0.93788        0.18749
H         -3.63126       -0.08073       -0.78433
H         -5.19019        1.68228        1.03445
H         -3.82436        2.12722       -0.02354
H         -5.39019        1.65439       -0.74115
H         -5.79962       -0.81293        1.14465
H         -6.00888       -0.83193       -0.62752
H         -4.82908       -1.92450        0.14477
