42
2msa2eda_606.log	Energy: -1072734.5111760
S          0.54830        2.55916        0.32648
O          0.57924        1.92427        1.63538
O          1.77793        2.71038       -0.43361
O         -0.01602        4.06877        0.54593
H         -0.43037        4.10860        1.41952
C         -0.69111        1.82919       -0.69577
H         -0.36574        0.79776       -0.87521
H         -1.65411        1.82322       -0.16816
H         -0.73697        2.40563       -1.62029
S         -0.19600       -2.06759        0.50421
O         -1.15959       -3.10294        0.11207
O          0.21648       -1.15539       -0.59534
O          1.02679       -2.63053        1.18601
H          2.32868       -2.09872        0.70416
C         -0.98859       -1.05485        1.74146
H         -1.90112       -0.64345        1.30590
H         -1.23411       -1.69513        2.58936
H         -0.30517       -0.25612        2.03122
H          4.39741       -2.00827       -1.45720
H          2.64649       -2.34742       -1.57415
H          3.30782       -0.05774       -2.49955
H          2.08384       -0.03197       -1.22307
H          4.86081        0.80971       -0.95203
H          3.47983        1.48156       -0.36071
H          3.94112       -2.61147        0.69568
H          3.67013       -0.96025        0.73807
C          3.40205       -1.70532       -1.11919
C          3.13682       -0.23025       -1.43042
N          3.33916       -1.86468        0.35870
N          3.95348        0.60247       -0.55044
H         -5.17089        0.49714       -1.33316
H         -3.72010        1.31607       -1.92913
H         -3.57904       -1.10970       -2.30903
H         -2.31206       -0.58299       -1.20562
H         -4.71422       -2.04716       -0.44305
H         -3.13301       -2.36581       -0.10679
H         -4.42619        1.97808        0.36668
H         -3.99166        0.47325        0.85267
C         -4.09112        0.63348       -1.15452
C         -3.39429       -0.71802       -1.29741
N         -3.80595        1.20123        0.16488
N         -3.81803       -1.62212       -0.23110
