35
2msa1ma1dma_270.log	Energy: -978615.6336906
S          0.88282        1.32693       -0.10530
O          2.09370        1.91216        0.45895
O          0.10237        0.50225        0.89666
O          1.10500        0.50241       -1.33252
H          0.55709       -0.98928       -1.18941
C         -0.19987        2.65670       -0.59018
H         -0.41101        3.25754        0.29516
H          0.32831        3.25085       -1.33630
H         -1.11569        2.23299       -1.00652
S         -3.02229       -0.23267        0.03979
O         -2.48591       -1.59310       -0.15345
O         -2.98292        0.64072       -1.12414
O         -2.34034        0.43614        1.27544
H         -1.30054        0.51650        1.13088
C         -4.68398       -0.37889        0.64066
H         -5.26376       -0.85883       -0.14820
H         -4.67324       -0.98777        1.54399
H         -5.06142        0.62317        0.84252
N          0.13520       -1.95300       -1.01963
H         -0.87600       -1.81110       -0.82925
C          0.76835       -2.60363        0.15319
H          0.27244       -3.55306        0.35500
H          1.82821       -2.75815       -0.04718
H          0.65420       -1.92580        0.99862
H          0.23604       -2.50790       -1.86648
N          4.49458       -0.10236        0.31055
C          3.93598       -0.70607        1.50597
C          4.27593       -0.90776       -0.87465
H          4.05305        0.80378        0.18174
H          4.44192       -1.65810        1.70880
H          4.09886       -0.04656        2.36164
H          2.85009       -0.89849        1.43756
H          4.78958       -1.87089       -0.76417
H          3.20717       -1.10264       -1.08431
H          4.69409       -0.40351       -1.74991
