40
2msa1dma1eda_438.log	Energy: -1038011.6517919
S          2.32216       -0.95834        0.44312
O          2.41331       -0.27034        1.72287
O          1.92779       -0.15761       -0.72040
O          1.41132       -2.23340        0.54404
H          0.40082       -1.99209        0.55578
C          3.87610       -1.74685        0.09653
H          4.62342       -0.95574        0.02930
H          4.10659       -2.42571        0.91712
H          3.79129       -2.28268       -0.84816
S         -1.90404       -1.55790       -0.64386
O         -2.82119       -2.68643       -0.72804
O         -1.00219       -1.59197        0.56593
O         -2.56624       -0.21320       -0.70323
H         -2.68011        0.61602        0.61466
C         -0.81933       -1.60739       -2.05900
H         -0.34916       -2.59126       -2.08656
H         -1.42921       -1.45239       -2.94926
H         -0.06286       -0.82822       -1.95235
N          0.69233        2.61693       -1.21077
C          1.60243        3.57083       -1.82631
C         -0.41909        2.25346       -2.08054
H          1.20807        1.77175       -0.97294
H          1.08174        4.51923       -1.99996
H          2.44154        3.76516       -1.15272
H          2.00523        3.22501       -2.79330
H         -1.03571        3.13813       -2.27603
H         -0.09184        1.84954       -3.05383
H         -1.04909        1.50492       -1.59092
H         -1.82191        1.29561        3.40130
H         -1.50510       -0.21225        2.47673
H          0.49534        1.39160        2.48998
H         -0.09482        0.95534        0.89903
H         -0.35296        3.55020        2.14680
H         -0.15646        3.10683        0.55480
H         -3.63699        1.12272        1.92518
H         -2.52643        2.20229        1.23470
C         -1.59717        0.87253        2.41831
C         -0.34965        1.51041        1.80628
N         -2.71853        1.21679        1.50073
N         -0.64715        2.89363        1.43312
