37
2msa1ma1eda_381.log	Energy: -1013355.1646585
S         -2.13945       -1.12923        0.41425
O         -3.17287       -0.51822       -0.43238
O         -1.85715       -0.46288        1.69104
O         -0.85498       -1.30574       -0.39956
C         -2.65791       -2.79612        0.78158
H         -3.58717       -2.73309        1.34859
H         -2.81638       -3.32254       -0.15949
H         -1.87922       -3.27669        1.37407
S          2.50644       -0.62271       -0.43679
O          3.53083        0.22585        0.13646
O          1.86636       -0.22720       -1.69239
O          1.40041       -0.85290        0.66172
H          0.47881       -1.05746        0.25809
C          3.17968       -2.25584       -0.66534
H          3.96904       -2.18106       -1.41403
H          3.58451       -2.59385        0.28842
H          2.38243       -2.91500       -1.00982
N          0.21521        1.81010        2.23681
H         -0.45474        2.17940        2.90387
C          1.56760        1.83921        2.79702
H          1.67613        1.27228        3.73230
H          2.26929        1.42956        2.06724
H          1.85642        2.87670        2.99225
H         -0.08460        0.85428        2.05557
H         -1.65352        2.51578       -2.85763
H         -2.69725        1.28186       -2.07459
H         -2.24789        3.36728       -0.63175
H         -1.84126        1.82724        0.12099
H          0.03883        3.84209       -0.73803
H          0.13945        2.67521        0.45799
H         -0.44240        0.52174       -3.09340
H          0.20747        1.30237       -1.76120
C         -1.74506        1.81067       -2.02687
C         -1.55550        2.51854       -0.67808
N         -0.63587        0.83092       -2.14490
N         -0.15331        2.87511       -0.50871
H         -0.78584       -0.01802       -1.55015
