29
2msa1a1ma_84.log	Energy: -929296.1959633
S          1.50632       -0.92675       -0.32287
O          0.91497        0.30946       -0.93541
O          0.85124       -2.16618       -0.81702
O          1.50939       -0.86255        1.16396
H          0.11165       -1.94755        1.78779
C          3.19351       -0.94375       -0.87149
H          3.18647       -1.04641       -1.95697
H          3.64789        0.00603       -0.57275
H          3.68378       -1.79835       -0.40499
S         -2.51494        0.42864       -0.16447
O         -2.48625       -0.42172        1.04340
O         -2.74366       -0.25107       -1.42592
O         -1.24263        1.33390       -0.20433
H         -0.36944        0.85041       -0.51275
C         -3.75183        1.67261        0.10376
H         -4.70845        1.15538        0.18146
H         -3.51886        2.20014        1.02807
H         -3.74449        2.34857       -0.75075
N         -0.69292       -2.46481        1.38645
H         -1.48072       -1.78763        1.28617
H         -0.95328       -3.28198        1.92887
H         -0.33971       -2.70148        0.43486
N          3.20718        2.30177       -0.19181
H          3.56052        3.17189       -0.57357
C          2.91392        2.43612        1.23450
H          2.19685        3.23383        1.48040
H          2.50428        1.49133        1.60220
H          3.84267        2.63267        1.77892
H          2.36084        2.05955       -0.70011
