32
2msa2ma_215.log	Energy: -953955.8827236
S          2.88760        0.18288       -0.34808
O          4.10856        0.56886       -1.02032
O          1.86453       -0.28182       -1.45259
O          2.23242        1.18266        0.51883
H          0.74704        1.99993        0.34560
C          3.15838       -1.26978        0.63336
H          3.83914       -0.98836        1.43748
H          2.19209       -1.60772        1.01735
H          3.61132       -2.02147       -0.01314
S         -1.03563       -1.18895        0.48169
O         -1.68303       -0.33634        1.49426
O          0.06051       -2.04416        0.94994
O         -0.56872       -0.30611       -0.68462
H          0.90562       -0.37601       -1.11036
C         -2.28483       -2.23268       -0.23404
H         -2.65702       -2.88229        0.55936
H         -3.08308       -1.59813       -0.63282
H         -1.81632       -2.82365       -1.02156
N         -4.58684        0.12893       -1.14207
H         -5.02606        0.25148       -2.04747
C         -3.69700        1.24424       -0.82864
H         -4.18623        2.23067       -0.80885
H         -3.23624        1.05507        0.14556
H         -2.89241        1.26898       -1.57014
H         -5.32710        0.05251       -0.45346
N         -0.26010        2.21640        0.17860
H         -0.32206        2.90726       -0.56585
C         -0.94369        2.65783        1.41738
H         -1.98195        2.89648        1.18798
H         -0.92045        1.82705        2.12078
H         -0.43328        3.53245        1.82042
H         -0.62721        1.29310       -0.17669
