42
2msa2eda_247.log	Energy: -1072756.1761036
S         -0.43709       -2.22508        0.39231
O         -1.52992       -1.29792        0.80951
O          0.31858       -2.81990        1.48828
O          0.44112       -1.54358       -0.63471
C         -1.24984       -3.53022       -0.51200
H         -1.93793       -4.02901        0.17089
H         -1.78827       -3.08901       -1.35129
H         -0.48663       -4.22466       -0.86369
S          2.97957        0.62308       -0.00105
O          2.25222        1.01902        1.21225
O          2.68039        1.38511       -1.20890
O          2.83888       -0.91388       -0.24899
H          1.85141       -1.21600       -0.36306
C          4.71916        0.70544        0.33657
H          4.92844        0.09535        1.21452
H          5.25357        0.33797       -0.53893
H          4.95403        1.75358        0.52339
H         -1.03801        2.36993        2.76267
H         -1.02416        3.34429        1.28048
H         -3.33266        3.06197        2.00109
H         -3.10020        2.15061        0.50160
H         -3.09553        0.13192        1.72573
H         -3.15477        0.91908        3.17036
H          0.42550        1.31459        1.23835
H         -0.94424        0.37313        1.21973
C         -1.33097        2.38537        1.70814
C         -2.84320        2.18378        1.56574
N         -0.57930        1.31899        1.00889
N         -3.38552        0.98860        2.18570
H         -0.62316        1.38899       -0.05951
H         -2.10831       -0.57024       -2.92556
H         -3.29261        0.67663       -3.31720
H         -1.01960        1.43749       -3.75561
H         -1.81402        2.43779       -2.52262
H         -0.05917        0.20065       -1.75850
H          0.51609        1.70546       -1.96136
H         -4.01920        0.00506       -1.27412
H         -2.53305       -0.23143       -0.64761
C         -2.50644        0.40766       -2.60449
C         -1.39577        1.44497       -2.72218
N         -3.07582        0.37507       -1.26037
N         -0.33153        1.18521       -1.74850
