37
2msa1ma1eda_436.log	Energy: -1013351.5556758
S         -1.72744       -1.32159        0.46357
O         -3.02001       -1.66610       -0.11970
O         -0.78319       -0.68582       -0.55230
O         -1.01297       -2.44389        1.12862
H          0.68042       -2.41053        0.89549
C         -1.98742       -0.06082        1.69662
H         -2.48898        0.77678        1.20094
H         -2.62535       -0.48967        2.47046
H         -1.01574        0.22143        2.10535
S          1.33037        1.76342        0.32273
O          2.56718        1.94938       -0.42448
O          1.33847        0.68746        1.33327
O          0.12536        1.56088       -0.63106
H         -0.33261        0.57542       -0.55828
C          0.91503        3.28357        1.13943
H          1.71463        3.50588        1.84635
H          0.84144        4.06228        0.38040
H         -0.03734        3.14799        1.65153
N         -3.89376        1.24783       -0.71183
H         -4.06673        0.25183       -0.59485
C         -3.24563        1.48206       -2.00164
H         -3.85688        1.20761       -2.87449
H         -2.97391        2.53808       -2.09228
H         -2.32384        0.89725       -2.04296
H         -4.78880        1.72282       -0.66911
H          2.24979       -3.32470       -0.92870
H          0.85268       -2.30497       -1.36360
H          3.04797       -1.60507       -2.47770
H          2.20561       -0.33921       -1.60391
H          4.76756       -1.40778       -0.97359
H          4.02899       -0.04081       -0.43386
H          2.38633       -2.32473        1.12793
H          1.51413       -0.99569        0.73487
C          1.82590       -2.31917       -0.87219
C          2.76060       -1.27278       -1.47344
N          1.59424       -2.01688        0.56795
N          3.90584       -1.03466       -0.59729
