42
2msa2eda_424.log	Energy: -1072753.5001208
S          2.30214       -1.32181        0.45369
O          3.71468       -1.36260        0.80400
O          1.93642       -1.80307       -0.89921
O          1.69525        0.07301        0.65655
H          1.22376        0.43464       -0.98822
C          1.41518       -2.36263        1.60480
H          1.80894       -3.37327        1.49067
H          1.61056       -2.00437        2.61714
H          0.34818       -2.34320        1.36525
S         -2.29888       -1.32698       -0.45430
O         -3.71102       -1.37098       -0.80569
O         -1.93294       -1.80778        0.89868
O         -1.69522        0.06953       -0.65613
H         -1.22365        0.43002        0.98825
C         -1.40828       -2.36513       -1.60500
H         -1.79848       -3.37712       -1.49068
H         -1.60462       -2.00782       -2.61750
H         -0.34141       -2.34190       -1.36521
H          0.06348        2.90506        1.11028
H         -0.89457        3.82152        2.27348
H         -0.08716        1.81522        3.36952
H         -1.85248        1.67384        3.14084
H          0.30449        0.31642        1.57110
H         -1.00365       -0.37315        2.37630
H         -2.23122        3.77618        0.37241
H         -2.10914        2.14728        0.15708
C         -0.88750        2.90857        1.67084
C         -0.88835        1.72826        2.63220
N         -2.08625        2.89470        0.84742
N         -0.68766        0.46334        1.88328
H         -0.07040        2.90598       -1.10801
H          0.88466        3.82505       -2.27166
H          0.07984        1.81698       -3.36733
H          1.84594        1.68062       -3.14178
H         -0.30482        0.31572       -1.57013
H          1.00537       -0.36920       -2.37604
H          2.22403        3.78198       -0.37296
H          2.10418        2.15313       -0.15629
C          0.88003        2.91179       -1.66946
C          0.88254        1.73196       -2.63144
N          2.07953        2.89999       -0.84714
N          0.68680        0.46614       -1.88269
