34
2msa1a1eda_128.log	Energy: -988705.5320118
S         -0.99115       -1.67439       -0.17103
O         -0.32325       -1.47799       -1.46576
O         -2.41368       -1.27087       -0.13858
O         -0.23423       -1.00353        0.95537
C         -0.93621       -3.41618        0.20693
H         -1.48003       -3.94330       -0.57737
H          0.10836       -3.72868        0.22643
H         -1.40629       -3.57293        1.17769
S          2.78204        0.38083        0.17930
O          4.15517        0.67329        0.53157
O          1.75976        1.41323        0.37123
O          2.34713       -0.91179        0.98592
H          1.33999       -0.99648        0.98413
C          2.70006       -0.15933       -1.51363
H          2.94515        0.70028       -2.13892
H          3.43744       -0.95122       -1.64613
H          1.68879       -0.52560       -1.71058
N         -3.56601        0.90347        1.56988
H         -4.07560        1.38531        0.83328
H         -4.13075        0.88258        2.41135
H         -3.41389       -0.05183        1.24119
H         -1.62102        3.47940        0.11879
H          0.08878        3.03795       -0.18516
H         -1.21153        2.69008       -2.18625
H         -0.62791        1.13971       -1.58687
H         -3.15133        1.59650       -2.26759
H         -2.75834        0.50179       -1.12352
H         -0.48025        2.15421        1.86636
H         -1.95890        1.48901        1.35813
C         -0.93069        2.66013       -0.09793
C         -1.33716        1.95469       -1.38523
N         -0.96208        1.73795        1.07187
N         -2.72573        1.49466       -1.35448
H         -0.47349        0.84284        0.88300
