42
2msa2eda_558.log	Energy: -1072741.7027608
S          0.30749        2.45384        0.04490
O          0.76804        1.44903       -0.94838
O          1.38311        3.03270        0.85619
O         -0.82790        1.89310        0.86292
C         -0.43480        3.78900       -0.88417
H         -0.82556        4.51963       -0.17533
H          0.33948        4.23805       -1.50695
H         -1.23313        3.38019       -1.50472
S          3.33284       -1.07355       -0.02592
O          2.35400       -1.26354        1.03693
O          3.11477       -1.71019       -1.31461
O          4.73874       -1.64482        0.55416
H          5.08083       -2.28802       -0.08313
C          3.68619        0.64647       -0.20986
H          2.76924        1.10178       -0.60364
H          3.91555        1.05806        0.77283
H          4.52232        0.74540       -0.90169
H         -1.66943       -0.66993       -0.89975
H          0.04212       -0.96926       -1.24663
H         -1.39430       -3.05264       -1.53990
H         -0.14387       -3.26904       -0.30843
H         -2.98208       -2.70428        0.19128
H         -2.07003       -3.95789        0.77888
H         -0.62338        0.25095        0.90618
H         -1.04536       -1.33764        1.42104
C         -0.78495       -1.23224       -0.58795
C         -1.06881       -2.72979       -0.54155
N         -0.45206       -0.78220        0.78976
N         -2.04868       -2.98044        0.51501
H          0.53887       -0.96416        0.99926
H         -5.96116       -0.13447       -0.18179
H         -5.54646       -1.30953        1.07428
H         -4.51632        0.86008        1.55971
H         -3.28381       -0.36747        1.25789
H         -4.10788        1.68504       -0.66015
H         -2.62448        1.46300        0.00832
H         -5.25101       -2.19487       -1.19417
H         -4.07262       -1.08036       -1.44156
C         -5.13396       -0.72667        0.24380
C         -4.07033        0.22621        0.77885
N         -4.53728       -1.64234       -0.73138
N         -3.46324        0.97994       -0.31596
