37
2msa1ma1eda_447.log	Energy: -1013353.1292060
S          2.45589        1.43713        0.23280
O          3.56672        2.35228        0.38250
O          2.34829        0.31833        1.18714
O          2.49350        0.84313       -1.21842
H          1.89926       -0.02693       -1.34808
C          0.92304        2.33466        0.29115
H          0.88930        2.84074        1.25695
H          0.92298        3.05859       -0.52371
H          0.09812        1.62023        0.22001
S         -1.90262       -0.93390        0.25527
O         -1.76927       -0.65300       -1.19618
O         -1.12427        0.00646        1.09555
O         -1.52675       -2.35662        0.57677
H          0.01082       -2.28632        1.02678
C         -3.62110       -0.75899        0.66555
H         -3.92191        0.26703        0.42336
H         -4.18123       -1.48072        0.07018
H         -3.73539       -0.96522        1.73009
N         -4.10672        2.42572       -0.36998
H         -4.54851        2.42056       -1.28289
C         -2.67151        2.68847       -0.49068
H         -2.42278        3.66738       -0.92691
H         -2.21225        2.61788        0.49903
H         -2.22096        1.90444       -1.10502
H         -4.56383        3.14534        0.17922
H          0.31574       -3.13341       -1.25859
H          1.93969       -3.06983       -1.95932
H          2.09757       -3.68096        0.34567
H          2.85144       -2.08290        0.12254
H          1.33677       -2.38579        2.09386
H          1.14840       -1.03045        1.19042
H          1.08765       -1.18301       -2.76642
H          0.03656       -0.92330       -1.56147
C          1.25358       -2.56663       -1.27259
C          1.90765       -2.63268        0.10385
N          1.01497       -1.19352       -1.75222
N          1.04383       -2.06343        1.17400
