42
2msa2eda_399.log	Energy: -1072754.9151547
S          2.72445        1.58617       -0.26822
O          2.84418        0.85907        1.02146
O          1.99114        2.86074       -0.15251
O          2.18097        0.70120       -1.35071
H          0.70825       -0.16745       -1.16782
C          4.38689        1.98345       -0.78628
H          4.82966        2.62922       -0.02769
H          4.94905        1.05388       -0.87926
H          4.33012        2.49796       -1.74558
S         -3.76275        0.03189       -0.25251
O         -2.86319       -0.78654       -1.10069
O         -3.77506        1.46606       -0.59385
O         -3.46445       -0.16027        1.21632
H         -2.45819        0.96462        1.62240
C         -5.40559       -0.61442       -0.48705
H         -5.66065       -0.49262       -1.53995
H         -5.40319       -1.66820       -0.20894
H         -6.08753       -0.04517        0.14435
H         -1.03499       -0.71856        1.14318
H          0.67969       -0.19466        1.19377
H          0.12102        2.03697        0.50815
H         -1.29959        1.48065       -0.39916
H         -1.17327        1.68989        2.53280
H         -2.06039        2.60222        1.47088
H          0.24419       -1.70895       -0.58370
H         -0.96084       -0.68001       -1.19731
C         -0.26531       -0.11915        0.65064
C         -0.71876        1.33746        0.51402
N         -0.05928       -0.69937       -0.69482
N         -1.64991        1.68269        1.63202
H          2.54833       -4.51080        0.06282
H          2.25190       -3.72537       -1.49682
H          4.09714       -2.63145       -0.21705
H          2.77620       -1.52295       -0.57644
H          3.43010       -2.60760        2.03204
H          2.97984       -1.08802        1.56892
H          0.18113       -4.09912       -0.28125
H          0.75805       -3.17723        0.95632
C          2.18086       -3.58896       -0.41289
C          3.04619       -2.40421        0.01469
N          0.78269       -3.31426       -0.05364
N          2.81397       -2.08238        1.42187
