40
2msa1dma1eda_263.log	Energy: -1038018.7415445
S         -1.21443        2.11182        0.08939
O         -2.10632        1.43612       -0.86807
O          0.15277        2.37563       -0.48539
O         -1.13398        1.41750        1.39971
C         -1.87381        3.73555        0.40644
H         -1.93683        4.26535       -0.54393
H         -2.86328        3.61232        0.84723
H         -1.20504        4.24942        1.09662
S          2.77541        0.18466       -0.11821
O          3.45254       -1.02092       -0.57950
O          2.39424        0.25944        1.28687
O          1.50716        0.36491       -1.03403
H          0.94146        1.21795       -0.79654
C          3.76226        1.61026       -0.51713
H          4.67375        1.55431        0.07876
H          3.99014        1.58020       -1.58231
H          3.18571        2.50029       -0.26085
N         -3.06850       -1.99639       -0.25996
C         -2.83795       -1.78060       -1.69273
C         -4.06104       -1.06705        0.28864
H         -3.37981       -2.95113       -0.10958
H         -2.46178       -0.76323       -1.83437
H         -2.08369       -2.48660       -2.05149
H         -3.75396       -1.89873       -2.28923
H         -3.68275       -0.04847        0.16813
H         -5.03327       -1.14308       -0.22010
H         -4.20282       -1.26759        1.35390
H          1.11866       -1.65429        1.83708
H         -0.39987       -2.38175        2.40158
H          1.16647       -4.05801        1.33817
H         -0.41728       -3.98006        0.55374
H          1.99528       -2.66266       -0.51556
H          1.08788       -3.84643       -1.21052
H         -0.66221       -0.26586        1.09683
H         -0.02251       -1.09181       -0.21362
C          0.20236       -2.15621        1.51869
C          0.51222       -3.42343        0.72226
N         -0.54419       -1.20590        0.66503
N          1.05858       -3.05860       -0.57631
H         -1.50666       -1.57030        0.40224
