35
2msa1ma1dma_134.log	Energy: -978625.7015216
S          0.60305       -1.47785       -0.29877
O          0.18239       -0.78746       -1.53841
O          0.31583       -0.65602        0.92372
O          2.03716       -1.88232       -0.30516
H          2.92651       -0.53678        0.23973
C         -0.36320       -2.96229       -0.16385
H         -1.41063       -2.66251       -0.09154
H         -0.17834       -3.56286       -1.05457
H         -0.04555       -3.48929        0.73581
S         -3.03243        0.35821        0.31718
O         -4.16803        1.11821        0.79763
O         -3.05293       -1.09914        0.36231
O         -1.75663        0.88089        1.11261
H         -0.99752        0.22029        1.04664
C         -2.67053        0.85016       -1.35647
H         -3.51025        0.52724       -1.97343
H         -2.57654        1.93616       -1.37764
H         -1.74596        0.35512       -1.66303
N          1.63800        1.80819       -1.31272
H          2.06382        2.25695       -2.11802
C          0.68791        2.71995       -0.65941
H         -0.06378        3.12201       -1.34907
H          0.16298        2.18076        0.13173
H          1.22515        3.55932       -0.20927
H          1.13357        0.98405       -1.65436
N          3.28999        0.42815        0.43474
C          4.70631        0.52338        0.04235
C          3.01279        0.78486        1.84126
H          2.69786        1.04480       -0.21700
H          5.30637       -0.15034        0.65653
H          4.80168        0.23910       -1.00622
H          5.05499        1.54914        0.17825
H          3.61584        0.15855        2.50137
H          3.25773        1.83647        2.00319
H          1.95418        0.60213        2.02730
