40
2msa1dma1eda_261.log	Energy: -1038021.1747564
S         -0.63821        1.70741       -0.79249
O         -1.95848        1.45970       -1.38650
O          0.48304        1.18294       -1.63616
O         -0.51108        1.20431        0.60742
C         -0.40953        3.47488       -0.70901
H         -0.48095        3.87213       -1.72166
H         -1.19515        3.88954       -0.07692
H          0.57488        3.67589       -0.28500
S          2.85451       -0.15469        0.65221
O          4.22881       -0.58114        0.81654
O          1.80451       -1.17558        0.57992
O          2.79302        0.75301       -0.63499
H          1.84889        0.89088       -0.99885
C          2.42404        0.96699        1.96439
H          2.47628        0.40564        2.89821
H          3.15324        1.77721        1.96508
H          1.40968        1.32557        1.77630
N         -3.54383       -1.00142        1.41048
C         -4.26153       -0.43874        0.26125
C         -3.18721        0.02591        2.39385
H         -4.12155       -1.70745        1.85589
H         -3.60299        0.25620       -0.26960
H         -4.54140       -1.24296       -0.42487
H         -5.17154        0.10248        0.55881
H         -2.46901        0.71549        1.93937
H         -4.06018        0.59955        2.73815
H         -2.71285       -0.44477        3.25935
H         -2.00499       -2.65442       -1.26724
H         -1.66172       -0.94461       -1.65590
H         -0.11552       -2.60191       -2.83630
H          0.72897       -1.41697       -1.84190
H          0.77368       -4.21518       -1.50798
H          1.53496       -3.06681       -0.59637
H         -1.98734       -1.51321        0.76199
H         -0.47940       -2.35233        0.61606
C         -1.26609       -1.85122       -1.19341
C          0.06505       -2.28461       -1.80468
N         -1.06088       -1.58730        0.25431
N          0.64716       -3.35469       -0.99309
H         -0.56083       -0.69482        0.41170
