34
2msa1a1eda_86.log	Energy: -988704.4923102
S          2.62974        0.18667       -0.23133
O          1.67079       -0.37520        0.82175
O          2.39048        1.63992       -0.37779
O          2.61265       -0.60052       -1.45900
C          4.23564        0.01616        0.52340
H          4.24103        0.56527        1.46476
H          4.42012       -1.04532        0.68887
H          4.96869        0.42999       -0.16968
S         -1.29522       -1.71818       -0.06575
O         -1.19267       -0.78139       -1.19609
O         -2.13109       -1.24753        1.04574
O          0.09706       -2.16228        0.42290
H          0.84570       -1.34794        0.54289
C         -1.95185       -3.25248       -0.66824
H         -2.95915       -3.05222       -1.03391
H         -1.30609       -3.60301       -1.47275
H         -1.97260       -3.96276        0.15790
N         -0.50426        1.02265        2.36815
H         -1.15262        0.23710        2.36752
H         -0.73243        1.62949        3.14716
H          0.43368        0.64801        2.48815
H         -1.31359        3.66952       -0.06305
H         -0.99931        3.19770       -1.75237
H         -3.40547        3.08726       -1.20630
H         -2.76781        1.50298       -1.66238
H         -4.22579        1.76346        0.45129
H         -2.89195        0.83991        0.59825
H          0.60592        2.03480       -0.42861
H         -0.51404        1.60100        0.74201
C         -1.34029        2.84269       -0.77630
C         -2.75138        2.27406       -0.87726
N         -0.39604        1.80657       -0.29951
N         -3.21381        1.78946        0.41892
H         -0.55828        0.91155       -0.78907
