35
2msa1ma1dma_116.log	Energy: -978627.4544756
S         -1.87525       -1.07755        0.19580
O         -1.24909       -1.62399       -1.02318
O         -2.61053        0.19342       -0.02915
O         -0.89224       -0.93981        1.32341
C         -3.08130       -2.25712        0.76682
H         -3.83306       -2.37411       -0.01394
H         -2.56884       -3.20049        0.95543
H         -3.52941       -1.86909        1.68135
S          2.31765       -0.67265       -0.15466
O          3.74238       -0.61143        0.08630
O          1.64125        0.55920       -0.58941
O          1.63643       -1.20875        1.15702
H          0.62179       -1.10909        1.16064
C          1.96233       -1.93238       -1.35667
H          2.41486       -1.61539       -2.29717
H          2.41480       -2.86035       -1.00683
H          0.87624       -2.02130       -1.44280
N         -0.39384        2.06117        1.87817
H         -1.08971        2.43490        2.51575
C          0.95337        2.31131        2.39665
H          1.15380        1.85020        3.37351
H          1.68744        1.92636        1.68449
H          1.11627        3.38974        2.49008
H         -0.57155        1.05865        1.83076
N         -0.72892        1.85382       -1.16717
C         -0.70303        3.32737       -1.07784
C         -0.81071        1.31225       -2.54244
H          0.11964        1.46469       -0.72145
H         -1.62329        3.72831       -1.50564
H         -0.62174        3.57874       -0.02038
H          0.15905        3.70227       -1.63187
H         -1.70473        1.70785       -3.02658
H          0.08241        1.60845       -3.09414
H         -0.87574        0.22555       -2.47194
H         -1.51672        1.45465       -0.61360
