40
2msa1dma1eda_103.log	Energy: -1038028.4225347
S         -2.00148       -1.17145       -0.64461
O         -2.22545       -2.61028       -0.79263
O         -1.29790       -0.80178        0.63048
O         -3.23074       -0.32419       -0.78400
H         -3.04128        1.08281       -0.14756
C         -0.92076       -0.65617       -1.96799
H          0.01688       -1.21063       -1.90354
H         -1.43024       -0.85920       -2.91049
H         -0.69261        0.40522       -1.85616
S          2.34023        0.74342       -0.49262
O          1.41214        1.59575       -1.26965
O          2.27934       -0.69910       -0.89989
O          2.21534        0.90271        0.97264
H          0.09556       -1.62108        0.97662
C          3.98816        1.27156       -0.94013
H          4.11218        1.12895       -2.01372
H          4.09153        2.32489       -0.67802
H          4.70479        0.66555       -0.38542
N          1.01179       -2.13545        0.99891
C          0.76893       -3.53913        0.60978
C          1.66634       -1.95914        2.30963
H          1.58054       -1.64318        0.26080
H          0.19102       -4.03489        1.39142
H          0.18871       -3.55337       -0.31355
H          1.72518       -4.04640        0.47052
H          1.01049       -2.34079        3.09450
H          2.61027       -2.50784        2.31666
H          1.86041       -0.89431        2.44373
H         -2.67407        3.01178        2.10914
H         -2.50967        1.23008        2.12976
H         -0.27034        2.56515        2.20398
H         -0.39933        1.29731        0.99235
H         -0.36568        4.13956        0.48791
H          0.17967        2.86636       -0.41503
H         -3.92329        2.45666        0.27922
H         -2.37206        2.66885       -0.35763
C         -2.29054        2.14036        1.57084
C         -0.78673        2.27401        1.28360
N         -2.98014        2.07922        0.25283
N         -0.58635        3.20239        0.17258
