26
2msa2a_26.log	Energy: -904646.7528810
S         -2.45900       -0.23425        0.07223
O         -2.69110        0.89770        0.98699
O         -2.50313       -1.57787        0.63551
O         -1.14271        0.01963       -0.68881
C         -3.69855       -0.13321       -1.20784
H         -4.67007       -0.27499       -0.73323
H         -3.63846        0.84863       -1.67688
H         -3.50768       -0.92387       -1.93351
S          2.03982       -0.73413        0.00072
O          1.70485       -0.20919        1.33081
O          2.59596        0.24025       -0.94057
O          0.82998       -1.48991       -0.62120
H         -0.05256       -0.91308       -0.64084
C          3.18216       -2.07741        0.18801
H          2.74295       -2.80674        0.86792
H          3.36366       -2.51183       -0.79457
H          4.09853       -1.65808        0.60393
N         -0.03532        1.98672        0.88676
H          0.64511        2.65708        0.44603
H         -0.79715        2.41255        1.41008
H         -0.47562        1.38803        0.15269
H          0.49485        1.32912        1.47186
N          2.05996        3.21723       -0.54024
H          2.80648        3.71735       -0.06838
H          1.85023        3.72301       -1.39504
H          2.42158        2.29798       -0.80575
