43
2msa1eda1tma_161.log	Energy: -1062673.0355699
S         -0.74264       -1.43555       -0.30080
O         -0.92064       -0.44152       -1.37683
O         -0.49364       -0.86889        1.02574
O          0.37068       -2.45165       -0.68703
H          1.31005       -1.94954       -0.78854
C         -2.17151       -2.47571       -0.26067
H         -3.02063       -1.82302       -0.01590
H         -2.28807       -2.92948       -1.24470
H         -2.01467       -3.23402        0.50653
S          3.35857       -0.68551        0.15939
O          4.77196       -0.92827       -0.08325
O          2.46277       -1.20047       -0.94861
O          3.00029        0.74101        0.43349
H          1.79237        1.22578       -0.53550
C          2.87505       -1.59466        1.61817
H          3.07912       -2.65129        1.44095
H          3.47721       -1.22625        2.44917
H          1.81216       -1.42521        1.80055
H         -0.79827        2.61963       -0.18715
H          0.06080        1.58505        0.97622
H          0.50168        4.03115        1.43802
H          1.97358        3.15286        1.00172
H          0.53423        5.04541       -0.69591
H          2.14511        4.88176       -0.45381
H          0.33073        0.89533       -1.34317
H          1.16161        2.36022       -1.62283
C          0.18823        2.31765        0.17723
C          1.01744        3.51906        0.61591
N          0.90634        1.64840       -0.93288
N          1.27614        4.37071       -0.54686
N         -4.31858        0.00422        0.27664
C         -5.71555       -0.17209        0.63439
H         -6.21878       -0.78279       -0.12098
H         -5.79162       -0.68616        1.59704
H         -6.25431        0.79137        0.71445
C         -3.60503        0.75872        1.29440
H         -3.68430        0.24902        2.25879
H         -2.54406        0.81829        1.03740
H         -4.00414        1.78507        1.41048
C         -4.18200        0.62814       -1.03027
H         -3.12399        0.68872       -1.29938
H         -4.68876        0.01931       -1.78519
H         -4.62043        1.64421       -1.05699
