43
2msa1eda1tma_139.log	Energy: -1062680.3562899
S         -1.16257       -0.56108       -0.30725
O         -1.63099        0.26338        0.84141
O         -0.48831        0.23546       -1.35569
O         -2.31554       -1.35795       -0.86593
H         -3.61188       -0.87452       -0.32464
C          0.00424       -1.74786        0.30818
H          0.38195       -2.32838       -0.53399
H          0.83835       -1.21999        0.78069
H         -0.51354       -2.38518        1.02545
S          3.75680       -0.91532        0.04706
O          4.03857        0.13278       -0.98712
O          3.32317       -2.20355       -0.50820
O          2.84382       -0.37787        1.10083
H          1.86322        1.30169        0.43106
C          5.32622       -1.19966        0.85653
H          5.67070       -0.26076        1.29040
H          5.17544       -1.95112        1.63222
H          6.03174       -1.55977        0.10715
H         -0.61184        2.86342       -0.66545
H          0.00233        4.39114       -0.02305
H          1.53726        3.30794       -1.72981
H          2.32175        3.57481       -0.15341
H          1.06361        1.02610       -0.98431
H          2.73924        1.25758       -0.94028
H         -0.08922        3.42633        2.02653
H         -0.52643        1.96155        1.37708
C          0.16453        3.30785       -0.03112
C          1.52801        3.03198       -0.67231
N          0.11954        2.74460        1.31174
N          1.82176        1.59191       -0.55813
N         -4.56086       -0.51284        0.07129
C         -4.59193        0.94537       -0.19088
H         -3.72565        1.39157        0.29871
H         -4.51967        1.10792       -1.26700
H         -5.52377        1.36768        0.19416
C         -5.63613       -1.23305       -0.64294
H         -5.54450       -1.03330       -1.71100
H         -5.51976       -2.30311       -0.46849
H         -6.61118       -0.89792       -0.27990
C         -4.55188       -0.80539        1.52383
H         -4.48729       -1.88524        1.66285
H         -3.66757       -0.33286        1.95282
H         -5.46802       -0.42234        1.98080
