37
2msa1ma1eda_227.log	Energy: -1013359.3510503
S          0.41430        2.24582       -0.22767
O          1.58516        2.15968        0.66767
O         -0.86681        1.93464        0.48845
O          0.55417        1.44006       -1.46682
C          0.27364        3.94742       -0.74080
H          0.13043        4.55747        0.15109
H          1.19512        4.22264       -1.25409
H         -0.58244        4.03217       -1.41029
S         -2.50319       -1.08904       -0.14348
O         -2.98973       -1.36229        1.19958
O         -1.16046       -1.56558       -0.48130
O         -2.64365        0.43427       -0.50381
H         -1.89633        1.02392       -0.11047
C         -3.65822       -1.75125       -1.32243
H         -3.69457       -2.82858       -1.15797
H         -4.63300       -1.30114       -1.13640
H         -3.30222       -1.52091       -2.32595
N          1.28519       -0.35795        2.25417
H          1.96855       -0.74350        2.89814
C         -0.07005       -0.45930        2.81856
H         -0.13202       -0.10034        3.85296
H         -0.74180        0.14584        2.20945
H         -0.41821       -1.49339        2.77705
H          1.52088        0.62416        2.10082
H          3.05571       -0.52039       -1.79688
H          3.17605        0.25372       -0.21095
H          4.84607       -1.59908       -0.40382
H          3.64446       -1.96899        0.83757
H          3.70327       -3.13237       -1.84940
H          3.65838       -3.90011       -0.40546
H          0.90927       -0.27438       -0.93465
H          1.26397       -1.91288       -0.75870
C          2.93209       -0.68027       -0.72214
C          3.78756       -1.84406       -0.24085
N          1.50938       -0.96920       -0.45516
N          3.34882       -3.07288       -0.90066
H          1.32734       -0.87362        0.59360
