37
2msa1ma1eda_332.log	Energy: -1013358.7518791
S         -1.39599       -1.81196        0.25346
O         -1.00290       -1.44004        1.62117
O         -0.26879       -2.39774       -0.54627
O         -2.07328       -0.70050       -0.46896
C         -2.58695       -3.13415        0.35740
H         -3.44865       -2.76813        0.91588
H         -2.87311       -3.41714       -0.65563
H         -2.11745       -3.97106        0.87439
S          2.41196       -0.17159       -0.48779
O          3.16012        0.39109        0.63049
O          1.21979        0.55045       -0.93745
O          2.06640       -1.65836       -0.18073
H          1.05784       -1.92260       -0.33082
C          3.52686       -0.32299       -1.86626
H          3.85982        0.68158       -2.12895
H          4.37018       -0.93874       -1.55381
H          2.99022       -0.78580       -2.69430
N         -2.65294        2.86719       -1.64678
H         -3.64119        2.69101       -1.49446
C         -2.11757        1.92348       -2.64401
H         -2.60741        1.99754       -3.62218
H         -1.04836        2.10963       -2.77426
H         -2.22765        0.90422       -2.26527
H         -2.57379        3.82347       -1.97744
H         -1.45018        2.88242        2.08399
H         -1.96734        1.17377        2.18246
H          0.06093        1.58490        3.59547
H          0.37499        0.44051        2.29281
H          1.43216        3.13081        2.52526
H          2.05871        1.81443        1.74043
H         -1.64750        2.34246       -0.17522
H         -0.04038        1.92175        0.14743
C         -1.17376        1.84876        1.85741
C          0.16369        1.49213        2.50738
N         -1.02237        1.72345        0.38791
N          1.21025        2.33527        1.94128
H         -1.24621        0.75780        0.06901
