25
2msa1ma_29.log	Energy: -893800.2081539
S          1.35075        0.47239       -0.04309
O          0.55354       -0.75111       -0.29522
O          2.30259        0.75842       -1.16123
O          2.08340        0.41636        1.26054
H          3.73207        0.08701        0.92222
C          0.22313        1.84031        0.04997
H         -0.33814        1.88083       -0.88462
H         -0.45852        1.66457        0.88410
H          0.80555        2.74902        0.20093
S         -2.87621       -0.10499        0.02031
O         -2.78218        0.73026       -1.16929
O         -2.62817        0.52140        1.31297
O         -1.96301       -1.39305       -0.14206
H         -0.99182       -1.13461       -0.18774
C         -4.45673       -0.91654        0.05285
H         -5.20558       -0.13432        0.18110
H         -4.59899       -1.43507       -0.89467
H         -4.47385       -1.61020        0.89272
N          4.41339       -0.13322        0.15004
H          3.87873        0.30354       -0.64421
C          4.52032       -1.59835       -0.04158
H          5.12261       -1.80960       -0.92459
H          4.96945       -2.05092        0.84185
H          3.51144       -1.98726       -0.18241
H          5.31126        0.32063        0.29611
