43
2msa1eda1tma_119.log	Energy: -1062679.2184082
S         -0.36593        2.25304        0.19687
O         -1.75928        2.25031       -0.36231
O          0.67276        2.09579       -0.83293
O         -0.22533        1.28330        1.31604
C         -0.18136        3.87865        0.90438
H         -0.30738        4.61168        0.10740
H         -0.94546        4.00594        1.67124
H          0.81703        3.94664        1.33719
S         -2.82282       -1.08197       -0.32560
O         -2.60696       -1.72748        0.96354
O         -1.69210       -1.12312       -1.26719
O         -3.34275        0.37257       -0.16226
H         -2.60763        1.13527       -0.23348
C         -4.22743       -1.83568       -1.11062
H         -3.99120       -2.89060       -1.25207
H         -5.08722       -1.71928       -0.45105
H         -4.39542       -1.34112       -2.06665
H         -0.27148       -2.01391        1.64237
H          0.64303       -3.07356        0.56827
H          1.66149       -2.89990        2.83844
H          2.76985       -2.42769        1.54476
H          1.23420       -0.39356        3.01717
H          2.79504       -0.79228        3.33561
H          0.01123       -1.08672       -0.54344
H          0.60750       -0.11477        0.63670
C          0.68068       -2.12999        1.11756
C          1.86044       -2.12672        2.08020
N          0.77392       -1.01747        0.14738
N          2.07998       -0.79119        2.61839
H          1.71340       -0.94573       -0.34148
N          3.20288       -0.50333       -1.13658
C          3.66428        0.61394       -0.31074
H          2.88571        1.38004       -0.28435
H          3.83427        0.26373        0.71122
H          4.59315        1.05457       -0.71041
C          4.20619       -1.55507       -1.21549
H          4.45895       -1.89947       -0.20776
H          3.81446       -2.40316       -1.78524
H          5.13336       -1.20741       -1.70258
C          2.79967       -0.04162       -2.46452
H          2.41277       -0.88493       -3.04479
H          2.01145        0.70851       -2.36032
H          3.64581        0.40242       -3.01516
