41
2msa1dma1tma_112.log	Energy: -1027937.5875364
S         -1.38256        2.17411       -0.07834
O         -2.43631        1.53936       -0.92962
O         -0.24859        2.71157       -0.84670
O         -0.95637        1.25191        1.01639
C         -2.18656        3.54614        0.72779
H         -2.53704        4.23177       -0.04402
H         -3.02329        3.15681        1.30784
H         -1.45991        4.03584        1.37631
S         -2.37387       -1.85947        0.04117
O         -2.23455       -2.15638        1.45723
O         -1.14311       -1.64507       -0.72594
O         -3.37341       -0.67813       -0.20023
H         -2.93097        0.21356       -0.48814
C         -3.28624       -3.18460       -0.72109
H         -2.70809       -4.09869       -0.58253
H         -4.25140       -3.26488       -0.22100
H         -3.41186       -2.95758       -1.77923
N          4.88296       -0.90083       -0.30482
C          5.59043       -0.90188        0.96835
C          5.41733        0.07909       -1.24164
H          4.93537       -1.82525       -0.71961
H          5.44141        0.06270        1.46664
H          5.18365       -1.68010        1.61999
H          6.67674       -1.06075        0.86859
H          5.24191        1.08766       -0.85101
H          6.49990       -0.02806       -1.41964
H          4.89908       -0.00173       -2.20089
N          1.32064        0.02548        0.28438
C          2.18737        1.09479        0.83739
H          1.91863        2.03110        0.34648
H          1.99869        1.17870        1.90813
H          3.22739        0.82501        0.64582
C          1.54059       -1.27518        0.96130
H          1.34378       -1.14900        2.02667
H          0.83606       -1.99539        0.54706
H          2.57611       -1.57572        0.78920
C          1.48371       -0.07838       -1.18977
H          0.78867       -0.83154       -1.55605
H          1.23512        0.89129       -1.62292
H          2.52019       -0.35534       -1.39099
H          0.33644        0.33685        0.48819
