43
2msa1eda1tma_67.log	Energy: -1062684.4690623
S         -2.18948        1.71135       -0.27878
O         -2.81400        3.00514       -0.45015
O         -0.95786        1.64157        0.52251
O         -1.91438        1.12114       -1.71067
C         -3.35293        0.56759        0.42730
H         -3.59004        0.92938        1.42889
H         -4.24405        0.56715       -0.20066
H         -2.87836       -0.41649        0.45997
S         -0.28973       -2.03545       -0.85339
O         -1.29736       -1.90228        0.22534
O          1.08234       -2.24601       -0.33952
O         -0.34946       -0.88853       -1.81577
H         -1.30102        0.30661       -1.70208
C         -0.71153       -3.48240       -1.80408
H         -1.71178       -3.34197       -2.21407
H          0.02249       -3.58686       -2.60310
H         -0.68173       -4.34345       -1.13615
H          2.08312       -0.16354        3.15968
H          1.20815        1.37269        2.90502
H         -0.02264       -0.15126        4.43007
H         -0.94603        0.20534        2.96571
H         -0.58688       -2.26025        3.82508
H         -0.55214       -1.97659        2.20965
H          2.00676        0.52985        0.75472
H          1.23651       -0.93733        1.02510
C          1.18536        0.29286        2.73705
C         -0.06456       -0.32920        3.35120
N          1.20162        0.06508        1.27565
N         -0.09415       -1.76282        3.09478
H          0.34062        0.46078        0.86076
N          3.03004        1.12814       -0.51273
C          2.03457        1.60868       -1.47535
H          1.33777        0.80110       -1.71627
H          1.46784        2.43558       -1.03853
H          2.50911        1.95574       -2.40734
C          3.97522        2.18110       -0.16091
H          3.43642        3.03826        0.25256
H          4.67788        1.81400        0.59282
H          4.55219        2.52435       -1.03609
C          3.71365       -0.05950       -1.02595
H          4.44099       -0.41140       -0.28831
H          2.98155       -0.85361       -1.19783
H          4.24512        0.15163       -1.96833
