34
2msa1a1eda_195.log	Energy: -988699.5085547
S          1.43513        1.59710       -0.09460
O          2.46171        1.44585       -1.12994
O          1.83330        1.18939        1.26459
O          0.15393        0.87128       -0.48875
C          0.97497        3.32049       -0.03583
H          1.86485        3.89009        0.23374
H          0.61770        3.61338       -1.02337
H          0.19696        3.44797        0.71765
S         -2.96800       -0.17021        0.02442
O         -2.53345       -0.82416        1.26543
O         -2.78787       -0.92990       -1.20399
O         -2.30800        1.25445       -0.09293
H         -1.29465        1.17796       -0.25830
C         -4.66547        0.31259        0.20258
H         -5.24133       -0.60720        0.30834
H         -4.75779        0.93302        1.09331
H         -4.96274        0.85533       -0.69413
N          4.38428       -0.40198        0.45398
H          5.37845       -0.34042        0.64532
H          3.88620        0.08730        1.19495
H          4.18887        0.14300       -0.38373
H         -0.06362       -3.41585       -0.29878
H         -0.35568       -1.94808       -1.26736
H          1.92751       -3.03693       -1.74281
H          2.04297       -1.36754       -1.18310
H          2.86321       -3.71573        0.27158
H          3.36577       -2.12745        0.39604
H         -0.76283       -1.68965        1.19123
H          0.93981       -1.91120        1.34766
C          0.28357       -2.40087       -0.50799
C          1.76935       -2.38379       -0.87712
N          0.15739       -1.61154        0.74423
N          2.55583       -2.75180        0.29656
H          0.27826       -0.60683        0.50620
