30
2msa1eda_18.log	Energy: -953208.0826387
S          2.35962       -0.64964       -0.02573
O          2.14078       -0.42106       -1.47210
O          1.22420       -1.32784        0.63719
O          2.71243        0.62357        0.69388
H          1.32309        1.18523        1.28137
C          3.79101       -1.69955        0.11968
H          4.63491       -1.19119       -0.34664
H          3.97973       -1.87523        1.17865
H          3.57300       -2.63556       -0.39491
S         -2.63547       -0.61768        0.09407
O         -4.05492       -0.87222        0.20927
O         -1.96024        0.04543        1.22538
O         -2.38788        0.24092       -1.19575
H         -1.44649        0.72338       -1.22605
C         -1.77427       -2.13831       -0.22554
H         -2.16797       -2.55783       -1.15139
H         -0.70180       -1.93243       -0.28160
H         -1.98287       -2.80123        0.61530
H         -1.23419        2.61901        0.70698
H          0.22800        3.53425        1.14859
H          0.03377        3.48395       -1.23505
H          1.47378        2.58155       -0.74397
H         -0.22428        1.67771       -2.49269
H          0.61869        0.67510       -1.54043
H          0.23039        1.66335        2.49459
H         -0.29765        0.64772        1.32046
C         -0.14200        2.61940        0.68015
C          0.37806        2.56508       -0.75280
N          0.31909        1.46525        1.50009
N         -0.11028        1.40462       -1.51987
