35
2msa1ma1dma_248.log	Energy: -978616.4556841
S         -3.07596       -0.16389       -0.38537
O         -4.50593       -0.17867       -0.12129
O         -2.23772       -0.15311        0.87876
O         -2.60856        0.95399       -1.26618
H         -1.47013        1.80024       -0.60012
C         -2.64020       -1.66790       -1.23815
H         -2.94386       -2.50885       -0.61343
H         -3.18732       -1.67828       -2.18121
H         -1.56262       -1.67577       -1.41239
S          0.96944       -0.92055        0.55699
O          1.18855        0.51799        0.83274
O          0.77665       -1.26169       -0.84734
O         -0.21060       -1.44764        1.43186
H         -1.10668       -0.94643        1.19047
C          2.32915       -1.82478        1.23499
H          3.22139       -1.44423        0.72360
H          2.37231       -1.62394        2.30525
H          2.15976       -2.88293        1.03710
N         -0.74430        2.34634       -0.03265
H         -0.00091        1.67478        0.24385
C         -1.39176        2.92396        1.16956
H         -0.64804        3.43404        1.78191
H         -2.16955        3.61978        0.85589
H         -1.84132        2.09839        1.72061
H         -0.33092        3.06185       -0.62603
N          4.15415        0.35275       -0.39845
C          3.88456        0.20386       -1.82186
C          5.45468        0.94267       -0.12754
H          3.42056        0.91133        0.02784
H          4.59612       -0.50972       -2.25143
H          2.87746       -0.19589       -1.96568
H          3.97712        1.14926       -2.38465
H          6.24063        0.26249       -0.47303
H          5.61085        1.91520       -0.62659
H          5.58289        1.08241        0.94937
