35
2msa1ma1dma_91.log	Energy: -978627.5329707
S          1.63720       -1.38102       -0.01524
O          1.00553       -0.84713       -1.24932
O          0.60667       -1.81713        0.98089
O          2.64176       -0.47026        0.56971
C          2.50175       -2.86494       -0.49161
H          1.77813       -3.55567       -0.92481
H          3.26444       -2.59462       -1.22188
H          2.95624       -3.29167        0.40260
S         -2.36365       -0.34409       -0.12697
O         -2.49675       -0.21568       -1.57008
O         -1.61706        0.71150        0.56445
O         -1.80564       -1.74905        0.28146
H         -0.80275       -1.74027        0.54652
C         -3.99266       -0.45698        0.58033
H         -4.51524        0.46912        0.33904
H         -4.49881       -1.31116        0.13087
H         -3.89499       -0.58205        1.65813
N          1.47393        2.01976        1.69952
H          1.98510        1.13959        1.59132
C          0.45742        1.88285        2.75144
H          0.88322        1.62172        3.72800
H         -0.09373        2.82214        2.85033
H         -0.25031        1.10931        2.45147
H          2.15623        2.72648        1.95662
N          0.73203        1.88024       -0.98298
C          2.04831        2.12172       -1.60810
C         -0.35916        2.72042       -1.50927
H          0.52247        0.86878       -1.10159
H          2.34302        3.15875       -1.43431
H          2.76692        1.43966       -1.15169
H          1.98309        1.92633       -2.67950
H         -0.10516        3.77173       -1.35823
H         -0.49266        2.51901       -2.57328
H         -1.27089        2.46758       -0.97142
H          0.85707        2.02064        0.06780
