25
2msa1ma_23.log	Energy: -893803.4738010
S          1.27468        0.97117        0.15041
O          0.65864        0.87751        1.47406
O          0.92472       -0.21200       -0.73358
O          2.76579        1.12017        0.16738
H          3.45139       -0.26872       -0.34386
C          0.62240        2.40339       -0.67238
H         -0.45495        2.25521       -0.76866
H          0.85393        3.27187       -0.05520
H          1.09637        2.48393       -1.65043
S         -2.60315       -0.35770       -0.14862
O         -3.83969       -1.03909       -0.46996
O         -2.29165        0.92440       -0.77167
O         -1.42061       -1.38070       -0.46159
H         -0.55397       -0.89426       -0.57348
C         -2.48498       -0.15862        1.61647
H         -3.27386        0.53446        1.91171
H         -2.63737       -1.13365        2.07897
H         -1.49811        0.24798        1.84752
N          3.37775       -1.27999       -0.66644
H          2.41580       -1.24992       -1.05713
C          3.43614       -2.19559        0.49768
H          3.24232       -3.21816        0.17553
H          4.41806       -2.12322        0.96369
H          2.67070       -1.87760        1.20548
H          4.06207       -1.50093       -1.38542
