40
2msa1dma1eda_172.log	Energy: -1038022.0747555
S          0.51923       -1.81434       -1.07820
O          1.35815       -1.95834        0.14111
O          0.66656       -0.48340       -1.71420
O         -0.90862       -2.17073       -0.83756
H         -1.97008       -1.33631       -0.08805
C          1.11234       -3.03112       -2.23549
H          2.16513       -2.82601       -2.42988
H          0.98764       -4.01485       -1.78303
H          0.52458       -2.94766       -3.14961
S         -2.60097        0.73926        0.09676
O         -3.84062        1.35409        0.51594
O         -2.74255       -0.81221        0.31523
O         -1.35878        1.21294        0.72828
H          0.30392        0.71606        1.01714
C         -2.39122        0.90653       -1.66232
H         -3.25838        0.46009       -2.14882
H         -2.34072        1.97601       -1.87208
H         -1.46107        0.40842       -1.94909
N          2.16512        2.00903       -0.97378
C          3.47899        2.45460       -1.42145
C          1.12335        3.01486       -1.16908
H          1.89050        1.16432       -1.47796
H          3.80718        3.30118       -0.80958
H          4.20386        1.64572       -1.29964
H          3.48598        2.77411       -2.47513
H          1.36127        3.90791       -0.58164
H          1.01483        3.31705       -2.22176
H          0.16781        2.61771       -0.81533
H          2.57660        0.72045        2.91550
H          1.13960        1.78105        2.96357
H          0.86472       -0.04806        4.55533
H         -0.31384       -0.22034        3.25094
H          1.04641       -2.26432        3.95849
H          1.09513       -1.98279        2.34777
H          1.82716        1.24834        0.61541
H          1.54720       -0.36974        0.94480
C          1.50615        0.78370        2.70900
C          0.75886       -0.28815        3.49309
N          1.30339        0.58982        1.25490
N          1.34839       -1.60005        3.25642
