42
2msa2eda_312.log	Energy: -1072754.7925017
S          0.84296        2.34846       -0.61635
O          1.71407        3.15564       -1.44745
O          1.25457        2.13216        0.77831
O          0.66172        0.93456       -1.29838
C         -0.80337        3.01843       -0.60401
H         -0.72719        4.00618       -0.14770
H         -1.16114        3.08895       -1.63100
H         -1.42672        2.35032       -0.00590
S         -2.18641       -1.04733       -0.79583
O         -3.31727       -0.72888        0.08358
O         -1.05649       -1.73358       -0.10835
O         -1.68436        0.13897       -1.57364
H         -0.32149        0.59862       -1.39293
C         -2.78274       -2.18690       -2.02971
H         -3.14773       -3.07673       -1.51652
H         -3.59150       -1.69824       -2.57335
H         -1.95951       -2.43378       -2.70012
H         -0.77836       -1.47042        2.90812
H          0.55423       -0.69363        3.78155
H         -1.62186        0.45394        4.14112
H         -0.37959        1.51263        3.45911
H         -2.46876        0.26975        1.77323
H         -2.37164        1.83881        2.23412
H         -0.04533       -0.78658        0.92093
H          0.82677        0.53078        1.47322
C         -0.16701       -0.56593        2.97043
C         -1.03290        0.66173        3.23372
N          0.56717       -0.44770        1.69038
N         -1.82325        1.00419        2.06186
H          1.44523       -1.03456        1.65561
H          3.62252       -3.39303       -0.10869
H          1.93298       -3.54611        0.41092
H          2.13824       -2.68654       -1.91977
H          1.28316       -1.57378       -0.86482
H          3.93293       -1.18306       -1.97531
H          2.73017       -0.10121       -1.67624
H          3.43115       -2.39479        2.03384
H          3.55696       -1.17572        0.93373
C          2.71450       -2.82631        0.14641
C          2.26624       -2.00701       -1.06559
N          2.94678       -1.91847        1.28021
N          3.20865       -0.92013       -1.31793
