40
2msa1dma1eda_178.log	Energy: -1038020.7296012
S          2.21628       -0.52358        0.86498
O          2.85550       -0.18658       -0.41863
O          1.34902       -1.74176        0.77970
O          1.49566        0.62454        1.48327
C          3.50946       -0.96290        2.01028
H          4.04002       -1.82323        1.60242
H          4.17792       -0.10737        2.10802
H          3.05116       -1.20748        2.96840
S         -1.55112       -1.92171       -0.82060
O         -2.48274       -2.48886       -1.77262
O         -1.54982       -0.46617       -0.63042
O         -0.10549       -2.40275       -1.21347
H          0.56530       -2.10325       -0.50854
C         -1.79484       -2.65733        0.78409
H         -2.77197       -2.33672        1.14749
H         -1.76244       -3.74051        0.66718
H         -0.99297       -2.30835        1.43740
N         -2.57005        1.82973        0.88566
C         -3.64139        2.80375        1.05354
C         -2.13981        1.22460        2.14516
H         -2.86264        1.08333        0.25844
H         -3.27658        3.64816        1.64703
H         -3.95211        3.18340        0.07689
H         -4.52371        2.38695        1.56335
H         -1.72398        1.99816        2.79866
H         -2.96427        0.73065        2.68225
H         -1.35443        0.49103        1.94543
H         -0.10895        3.50637       -1.74378
H          0.82615        3.81645       -0.25992
H          2.27855        3.40334       -2.31954
H          2.59886        2.29110       -0.98247
H          1.70665        1.57067       -3.54857
H          2.02984        0.59819       -2.24567
H         -1.01282        2.11296        0.03455
H         -0.20134        1.18365       -1.09750
C          0.59494        3.07389       -1.02743
C          1.85865        2.57623       -1.73714
N         -0.06763        1.91908       -0.39022
N          1.52941        1.42253       -2.56514
H          0.53003        1.49083        0.35250
