29
2msa1a1ma_17.log	Energy: -929310.1725445
S          1.95995       -0.96585       -0.10282
O          0.74056       -1.82604       -0.22126
O          2.16937       -0.44426        1.26123
O          1.99579        0.09409       -1.14738
C          3.31105       -2.06530       -0.47313
H          3.31466       -2.85638        0.27651
H          3.15299       -2.47593       -1.47015
H          4.23518       -1.48853       -0.43179
S         -2.40715       -0.38562       -0.03018
O         -2.49683       -0.65213       -1.45534
O         -1.98527        0.97377        0.35618
O         -1.53507       -1.44478        0.71514
H         -0.57476       -1.56359        0.32080
C         -3.97133       -0.69636        0.75078
H         -4.68162        0.01772        0.33328
H         -4.26840       -1.71921        0.52113
H         -3.85728       -0.54983        1.82423
N          1.59668        2.36941        2.02384
H          1.90130        1.39456        1.93108
H          0.95438        2.41348        2.80881
H          2.40840        2.92947        2.26216
N          0.37659        2.20590       -0.50879
H          0.97856        1.43066       -0.87198
H         -0.54701        1.79201       -0.29167
C          0.27190        3.32620       -1.45939
H         -0.37400        4.09997       -1.04329
H          1.26442        3.73832       -1.64270
H         -0.15096        2.96603       -2.39731
H          0.80843        2.47517        0.41529
