37
2msa1ma1eda_547.log	Energy: -1013349.8129189
S         -1.31651       -2.00887       -0.19229
O         -1.49417       -3.38397        0.22871
O         -0.24369       -1.69984       -1.14400
O         -1.11433       -1.13414        1.10822
H         -0.60410       -0.27458        0.91712
C         -2.84613       -1.38608       -0.84861
H         -2.99524       -1.84911       -1.82472
H         -3.63677       -1.68085       -0.15809
H         -2.78899       -0.29383       -0.91375
S          0.50937        2.05018       -0.16151
O         -0.24494        3.23396        0.24815
O          0.37810        0.88705        0.77520
O          1.96731        2.30629       -0.40597
H          2.90876        1.11334       -0.21895
C         -0.15077        1.50979       -1.72912
H         -1.22690        1.37602       -1.60174
H          0.05674        2.29152       -2.46065
H          0.31943        0.56520       -2.00312
N         -3.06914        1.85655        0.05834
H         -2.27409        2.44320        0.30939
C         -3.67926        1.29039        1.26214
H         -4.00165        2.03720        2.00081
H         -4.55323        0.69265        0.98274
H         -2.96431        0.61908        1.74483
H         -3.72980        2.46251       -0.41758
H          4.58727       -0.91549        1.23538
H          3.35835        0.18618        1.91622
H          2.60949       -2.29120        1.66530
H          1.55149       -1.06644        0.95833
H          3.14291       -2.98738       -0.48859
H          1.73001       -2.23197       -0.88840
H          4.56278        0.77627       -0.31983
H          3.46993       -0.36220       -0.91805
C          3.60211       -0.46773        1.07805
C          2.52639       -1.54465        0.86899
N          3.65831        0.33684       -0.17091
N          2.65255       -2.10144       -0.47702
