42
2msa2eda_481.log	Energy: -1072745.6243875
S          1.18024        1.50209       -1.04566
O          1.78445        2.23265        0.07961
O         -0.28141        1.21465       -0.83870
O          1.92273        0.26422       -1.41526
H          1.92288       -1.07695       -0.37952
C          1.23548        2.55913       -2.47624
H          0.68956        3.47343       -2.24305
H          2.28216        2.77975       -2.68634
H          0.77364        2.02926       -3.30900
S         -1.20498       -2.21371       -0.51423
O         -0.33088       -3.31445       -0.09272
O         -1.27330       -1.87927       -1.92388
O         -0.73880       -0.95329        0.33105
H         -0.58978       -0.09240       -0.22237
C         -2.83750       -2.48793        0.12217
H         -3.25187       -3.34421       -0.41126
H         -2.75449       -2.69862        1.18837
H         -3.41321       -1.57339       -0.06412
H          3.41327       -2.42827        1.81130
H          4.03585       -2.11778        0.17034
H          4.71184       -0.33172        1.89546
H          3.86756        0.29401        0.47393
H          2.93331        0.38132        3.15925
H          2.33499        1.12340        1.79999
H          1.53601       -2.60073        0.25958
H          1.42830       -1.22280        1.18049
C          3.38212       -1.74331        0.96023
C          3.74734       -0.31063        1.37759
N          1.98998       -1.70197        0.46104
N          2.67242        0.24667        2.19209
H         -4.20830        1.30785        1.80023
H         -3.00425        0.01850        1.86054
H         -2.23201        2.17016        2.84579
H         -1.17351        1.54171        1.57496
H         -1.77871        3.97617        1.49012
H         -2.00767        3.15432        0.11187
H         -4.00291        1.51471       -0.43451
H         -2.55955        0.78404       -0.54716
C         -3.24926        0.97836        1.38708
C         -2.16114        1.98553        1.76758
N         -3.44470        0.76126       -0.04804
N         -2.34939        3.25421        1.06373
