38
2msa2dma_95.log	Energy: -1003283.2465544
S          2.94560       -0.47593        0.15102
O          2.10492       -1.09842       -0.89090
O          2.67753       -0.88853        1.51848
O          2.93482        1.07187       -0.01556
C          4.64415       -0.81745       -0.23950
H          4.83044       -0.51811       -1.27021
H          5.26909       -0.25359        0.45282
H          4.79500       -1.88911       -0.10814
S         -0.50471        1.80203       -0.18042
O         -0.37379        1.16814        1.14270
O         -1.37622        1.02044       -1.09936
O          0.82213        2.11796       -0.80240
H          2.01259        1.47521       -0.31871
C         -1.29308        3.38496        0.03690
H         -2.27012        3.21561        0.49076
H         -0.66406        3.98842        0.69140
H         -1.39651        3.85424       -0.94142
N         -0.56905       -1.60801       -0.31826
C         -1.10382       -2.60467       -1.26630
C         -0.64271       -2.01292        1.10335
H          0.42120       -1.39889       -0.55345
H         -2.15989       -2.75425       -1.03960
H         -0.98942       -2.21580       -2.27847
H         -0.54753       -3.53730       -1.16092
H         -1.68816       -2.20506        1.34476
H         -0.03558       -2.90794        1.24620
H         -0.25221       -1.19262        1.70494
H         -1.08037       -0.71734       -0.45679
N         -3.54509       -0.72138        0.02500
C         -3.65863       -0.15548        1.36257
C         -4.80470       -1.24910       -0.47348
H         -3.19482        0.00156       -0.59915
H         -3.88879       -0.95012        2.08246
H         -2.70562        0.29997        1.64695
H         -4.45285        0.60662        1.44585
H         -5.11537       -2.10242        0.14048
H         -5.62594       -0.51213       -0.46020
H         -4.67861       -1.60241       -1.50133
