40
2msa1dma1eda_358.log	Energy: -1038016.3205000
S         -0.07835       -2.28388       -0.24748
O         -0.51763       -3.62601       -0.55569
O         -0.68055       -1.33225       -1.35120
O          1.37941       -2.05667       -0.16320
H          2.49299       -0.82656        0.08055
C         -0.80637       -1.71714        1.26489
H         -1.89600       -1.70637        1.12765
H         -0.49882       -2.41933        2.04152
H         -0.42262       -0.71245        1.46165
S          0.67306        1.91004       -0.16271
O          2.08719        2.14980       -0.56792
O          0.57379        1.23960        1.15115
O         -0.10347        1.20464       -1.22526
H         -0.39273       -0.37171       -1.26258
C         -0.08366        3.51524       -0.01489
H          0.44206        4.06808        0.76360
H          0.00140        4.02163       -0.97634
H         -1.13042        3.36716        0.25393
N          3.28286       -0.15953        0.21537
C          4.44143       -0.62333       -0.57274
C          3.53299       -0.01543        1.66560
H          2.93284        0.76032       -0.15221
H          4.76853       -1.59419       -0.19775
H          4.13893       -0.71836       -1.61542
H          5.25027        0.10386       -0.48669
H          3.79098       -0.98870        2.08580
H          4.35088        0.69030        1.81980
H          2.61870        0.36898        2.11897
H         -5.21631        0.63721        0.62478
H         -4.21058        0.25530        2.03280
H         -3.33472        2.23006        0.90599
H         -2.18014        0.89978        0.76391
H         -3.81744        1.97158       -1.39282
H         -2.23713        1.47206       -1.39825
H         -4.69425       -1.70435        0.58244
H         -3.76075       -0.99840       -0.57070
C         -4.22335        0.27007        0.93630
C         -3.16409        1.24887        0.43392
N         -3.92068       -1.06648        0.43292
N         -3.16256        1.29355       -1.02386
