34
2msa1a1eda_208.log	Energy: -988700.0006476
S         -1.13220       -1.75527        0.04387
O         -0.51381       -1.29856       -1.23958
O         -2.49412       -1.24718        0.24242
O         -0.21781       -1.47092        1.19553
C         -1.22407       -3.53211       -0.06124
H         -1.86766       -3.78725       -0.90335
H         -0.21800       -3.92504       -0.20858
H         -1.64841       -3.90121        0.87259
S          2.57795        0.43375       -0.13567
O          3.86018        1.01256        0.20481
O          1.63404        1.22904       -0.91989
O          1.90800       -0.01346        1.22828
H          1.06040       -0.55333        1.11416
C          2.81240       -1.11330       -0.98646
H          3.32632       -0.88791       -1.92180
H          3.42495       -1.75879       -0.35718
H          1.82627       -1.54130       -1.18153
N         -0.69169        1.15141        2.81027
H         -0.85148        0.20820        2.45899
H         -1.05666        1.19447        3.75577
H          0.31677        1.26568        2.86469
H         -2.56985        2.63496       -2.13679
H         -3.00648        0.91464       -1.93098
H         -3.68419        2.44217        0.03635
H         -2.70606        1.03549        0.46568
H         -1.86220        3.79781        0.57632
H         -1.31159        2.45415        1.41068
H         -0.54256        1.60722       -2.54609
H         -0.47346        1.92829       -0.91613
C         -2.40132        1.73429       -1.54063
C         -2.68586        1.99824       -0.05229
N         -0.96443        1.37869       -1.64976
N         -1.61943        2.81862        0.50221
H         -0.77786        0.36060       -1.47174
