38
2msa2dma_45.log	Energy: -1003289.0553029
S          0.82267        1.93118       -0.04339
O         -0.00254        1.93889       -1.25921
O          2.17243        1.35895       -0.19608
O          0.10137        1.26653        1.11834
C          1.02273        3.62860        0.46846
H          1.55522        4.15273       -0.32573
H          0.03299        4.06099        0.61677
H          1.59611        3.64521        1.39531
S         -2.65922       -0.49353       -0.00692
O         -3.94598       -1.06993        0.32577
O         -1.47396       -1.35565       -0.00145
O         -2.41312        0.71458        0.98435
H         -1.43433        0.97502        1.00843
C         -2.75043        0.29576       -1.59657
H         -2.90799       -0.48915       -2.33765
H         -3.59456        0.98517       -1.58066
H         -1.80893        0.82544       -1.76196
N          1.24949       -1.28238        1.33652
C          2.55664       -0.92938        1.92832
C          0.53602       -2.35260        2.06167
H          0.67150       -0.41943        1.28598
H          3.21078       -1.80364        1.89913
H          2.97870       -0.11048        1.34568
H          2.41177       -0.61449        2.96348
H          1.14462       -3.25956        2.04579
H          0.37207       -2.04330        3.09577
H         -0.41984       -2.52236        1.56866
H          1.40947       -1.57829        0.31945
N          1.84794       -2.00888       -1.29201
C          3.20695       -1.51874       -1.54316
C          0.86857       -1.40647       -2.20608
H          1.82970       -3.01704       -1.41783
H          3.22920       -0.44472       -1.34074
H          3.91040       -2.01958       -0.87123
H          3.52948       -1.68990       -2.58047
H          0.83596       -0.32743       -2.03577
H          1.12346       -1.58841       -3.26037
H         -0.12136       -1.81023       -1.98818
