42
2msa2eda_382.log	Energy: -1072752.4311522
S          2.67574       -0.79663       -0.93057
O          3.73596       -1.77246       -0.74812
O          3.00283        0.49045       -1.54205
O          1.98020       -0.49853        0.47183
H          2.26195        0.45407        0.84068
C          1.32567       -1.55951       -1.79246
H          1.71419       -1.89448       -2.75508
H          0.98039       -2.39993       -1.18644
H          0.52089       -0.83259       -1.91871
S         -2.76715        0.43284       -0.68215
O         -2.42094        1.86673       -0.71911
O         -3.19394       -0.01616        0.68324
O         -1.68621       -0.45084       -1.20059
H         -0.25053       -0.48888        0.64097
C         -4.18142        0.20516       -1.74356
H         -4.98835        0.83609       -1.37073
H         -3.89455        0.50223       -2.75259
H         -4.46709       -0.84637       -1.71585
H         -2.22868       -2.51529        2.10003
H         -0.86867       -3.57635        2.49670
H         -0.62137       -1.27474        3.45503
H          0.71985       -1.71131        2.35020
H         -1.67888       -0.20661        1.42990
H         -0.26769        0.58153        1.88203
H         -1.10257       -3.89954        0.24651
H         -1.38550       -2.32445       -0.11100
C         -1.16091       -2.70127        1.90905
C         -0.35095       -1.51375        2.42376
N         -0.86177       -2.94988        0.50259
N         -0.64460       -0.33360        1.57686
H          2.20293        3.86779        0.89789
H          2.71970        2.79731       -0.42565
H          0.34053        3.43107       -0.63412
H          0.57055        1.69628       -0.51569
H         -0.24205        3.39302        1.73965
H         -1.19552        2.42089        0.84340
H          3.53474        1.92326        1.59566
H          2.05311        1.93350        2.29724
C          2.08788        2.86515        0.46242
C          0.64360        2.62916        0.05060
N          2.54013        1.82806        1.41097
N         -0.24679        2.51984        1.21716
