40
2msa1dma1eda_55.log	Energy: -1038035.9088419
S         -2.87988       -0.13878        0.06270
O         -2.67002       -1.46705        0.70537
O         -2.10757       -0.03203       -1.21963
O         -2.64003        1.00907        0.95025
C         -4.60241       -0.10884       -0.40152
H         -4.79174       -0.93823       -1.08286
H         -5.19504       -0.21128        0.50773
H         -4.80558        0.84569       -0.88736
S          2.73667       -0.31492       -0.23665
O          1.48182       -0.03394        0.58345
O          2.61512        0.30833       -1.56805
O          3.05006       -1.75004       -0.21910
C          4.03331        0.54667        0.63199
H          3.75709        1.60046        0.69496
H          4.12913        0.10906        1.62586
H          4.95670        0.41817        0.06650
N         -0.09937       -2.29007        0.38751
C          0.45464       -3.30512        1.30545
C         -0.03816       -2.66848       -1.04355
H         -1.09315       -2.05274        0.62092
H          1.51359       -3.43514        1.07669
H          0.33661       -2.95083        2.32978
H         -0.08561       -4.24425        1.17595
H          1.00842       -2.77087       -1.33368
H         -0.57329       -3.60921       -1.18368
H         -0.52988       -1.88047       -1.61571
H          0.44923       -1.41083        0.51342
H          0.92999        3.51113       -1.13751
H         -0.83499        3.47010       -1.40378
H         -0.39372        4.36322        0.79868
H         -1.12062        2.75806        0.99452
H          0.96061        3.34372        2.34231
H          1.06090        1.92400        1.54536
H          0.60881        1.40231       -1.96732
H          0.59107        1.07773       -0.38401
C         -0.01006        3.05467       -0.82075
C         -0.21738        3.29106        0.66907
N          0.06989        1.59894       -1.12224
N          0.98953        2.93120        1.41710
H         -0.86213        1.12454       -1.19245
