43
2msa1eda1tma_100.log	Energy: -1062681.2713117
S          2.63167       -1.07475        0.40088
O          3.71876       -1.57017        1.21606
O          2.87814        0.45226        0.13614
O          1.25762       -1.28069        0.88309
C          2.72279       -1.78692       -1.22956
H          1.97003       -1.30078       -1.85288
H          3.72557       -1.61187       -1.61899
H          2.52829       -2.85567       -1.13220
S         -0.07327        2.03987       -1.09371
O          0.14044        2.61213        0.24970
O         -1.37798        1.35327       -1.23841
O          1.06706        1.15236       -1.50732
H          2.14522        0.83319       -0.46787
C         -0.06350        3.38758       -2.26011
H          0.89668        3.89715       -2.17903
H         -0.20116        2.97523       -3.25972
H         -0.88156        4.06063       -2.00267
H         -2.67358       -0.27278        2.70600
H         -1.12706       -1.11721        3.00346
H         -1.27501        1.01181        4.28155
H          0.05103        1.05669        3.11674
H         -1.83734        2.95012        3.28015
H         -1.09708        2.59665        1.85473
H         -1.75914       -1.01005        0.57620
H         -1.61072        0.64790        0.66643
C         -1.58997       -0.22395        2.57670
C         -1.04442        1.05120        3.21263
N         -1.30537       -0.22087        1.12532
N         -1.67387        2.21636        2.60379
H         -0.29112       -0.32359        0.96228
N         -2.27926       -2.07951       -0.70252
C         -1.09393       -2.06736       -1.56185
H         -0.83894       -1.03246       -1.80726
H         -0.25377       -2.51419       -1.02307
H         -1.26342       -2.62874       -2.49553
C         -2.62660       -3.43626       -0.29749
H         -1.77799       -3.89442        0.21819
H         -3.47846       -3.41235        0.38827
H         -2.89303       -4.06895       -1.16112
C         -3.40099       -1.40786       -1.35749
H         -4.26162       -1.38835       -0.68214
H         -3.11551       -0.38033       -1.59743
H         -3.69784       -1.92324       -2.28598
