32
2msa2ma_11.log	Energy: -953977.6015542
S          2.56868        0.15399        0.22828
O          2.54253       -1.02839        1.09779
O          2.07104        1.41128        0.85123
O          1.85862       -0.08739       -1.07712
C          4.27554        0.46466       -0.19069
H          4.80944        0.68076        0.73505
H          4.67996       -0.42918       -0.66590
H          4.32003        1.31719       -0.86842
S         -2.56851       -0.15335        0.22794
O         -2.54226        1.02751        1.09953
O         -2.06744       -1.41075        0.84804
O         -1.86170        0.09119       -1.07852
C         -4.27575       -0.46606       -0.18786
H         -4.80746       -0.68421        0.73865
H         -4.68242        0.42784       -0.66104
H         -4.32034       -1.31769       -0.86672
N          0.08215       -2.13924       -0.67225
H         -0.43165       -2.28898       -1.53845
H          0.74649       -1.34327       -0.84105
C          0.80595       -3.34677       -0.21805
H          1.38823       -3.06773        0.65946
H          0.08680       -4.12869        0.02608
H          1.47986       -3.68428       -1.00575
H         -0.63992       -1.83601        0.02574
N         -0.08012        2.13848       -0.66891
H          0.64257        1.83991        0.03029
H          0.43319        2.28565       -1.53583
C         -0.80894        3.34513       -0.22073
H         -1.48411        3.67583       -1.01023
H         -1.39037        3.06807        0.65795
H         -0.09307        4.13125        0.01958
H         -0.74125        1.33933       -0.83447
