32
2msa2ma_25.log	Energy: -953969.6074789
S          1.59420       -1.31451       -0.12965
O          0.85185       -1.56376        1.11559
O          2.76541       -0.42837       -0.00659
O          0.67135       -0.80999       -1.22792
C          2.18602       -2.88753       -0.72490
H          1.33041       -3.55182       -0.84811
H          2.69263       -2.72605       -1.67622
H          2.87734       -3.28418        0.01912
S         -2.54810       -0.08010        0.04632
O         -3.95873        0.02042       -0.25822
O         -1.77658        1.16286        0.20285
O         -1.88556       -0.96283       -1.08183
H         -0.86874       -0.92881       -1.08058
C         -2.31144       -1.03928        1.52216
H         -2.72767       -0.46362        2.34967
H         -2.84988       -1.97866        1.39629
H         -1.23961       -1.21217        1.64782
N          0.59040        1.96546       -1.01452
H          1.20887        2.15586       -0.15757
H          0.79459        0.99106       -1.30613
C          0.79833        2.94679       -2.09242
H          0.14911        2.71357       -2.93673
H          0.56873        3.94641       -1.72232
H          1.83967        2.90901       -2.41332
H         -0.38466        1.92335       -0.68079
N          2.11721        2.13751        1.27961
H          2.72632        1.35070        1.04876
C          1.20685        1.74315        2.36540
H          1.72236        1.56103        3.31534
H          0.45270        2.52041        2.51539
H          0.69821        0.82066        2.07553
H          2.69821        2.92080        1.55901
