32
2msa2ma_37.log	Energy: -953967.7076564
S          2.06739       -0.95150       -0.01581
O          0.93129       -1.76261        0.54975
O          2.61968        0.00958        0.95413
O          1.70842       -0.33904       -1.32106
C          3.32403       -2.16597       -0.34866
H          3.57874       -2.65147        0.59318
H          2.92272       -2.88522       -1.06229
H          4.18800       -1.64657       -0.76345
S         -2.32419       -0.67419       -0.11031
O         -2.11359       -1.70775       -1.10797
O         -2.47387        0.71153       -0.58875
O         -1.21652       -0.69377        0.98777
H         -0.28983       -1.18923        0.73910
C         -3.77416       -1.05254        0.84640
H         -4.62524       -1.02013        0.16554
H         -3.65135       -2.05015        1.26729
H         -3.87729       -0.30418        1.63168
N          0.04441        1.85413       -1.18972
H          0.63151        1.00782       -1.35650
H         -0.92512        1.53017       -1.03139
C          0.13577        2.81006       -2.30716
H         -0.44211        3.70435       -2.07117
H          1.18074        3.08040       -2.46118
H         -0.25714        2.35215       -3.21502
H          0.41607        2.26282       -0.27578
N          1.11051        2.55585        1.27932
H          1.80341        1.80215        1.28773
C          0.09415        2.29470        2.30787
H          0.51078        2.22936        3.32000
H         -0.66030        3.08623        2.28971
H         -0.40179        1.34813        2.07969
H          1.60049        3.42342        1.47194
