32
2msa2ma_46.log	Energy: -953969.4925506
S          1.79031        1.04666       -0.25615
O          0.95993        0.91498       -1.47294
O          2.84070        0.02739       -0.11369
O          0.92550        1.08922        0.98964
C          2.57561        2.64434       -0.33118
H          1.79926        3.40447       -0.41981
H          3.15196        2.78345        0.58334
H          3.22684        2.65369       -1.20551
S         -2.42198        0.39601        0.30083
O         -3.79983        0.53219        0.72175
O         -1.72526       -0.87003        0.55356
O         -1.60503        1.57566        0.96373
H         -0.60605        1.40777        0.93531
C         -2.29003        0.74364       -1.43852
H         -2.80517       -0.05834       -1.96933
H         -2.77728        1.70077       -1.62468
H         -1.22854        0.78304       -1.69620
N          0.73270       -1.70125        1.38199
H          0.75797       -0.66458        1.41370
H         -0.16483       -1.98604        1.77056
C          1.90691       -2.28802        2.05305
H          1.89742       -3.37104        1.92345
H          2.79582       -1.86213        1.58711
H          1.89359       -2.04396        3.11579
H          0.72245       -1.94460        0.32856
N          0.72300       -2.13762       -1.34011
H          0.71578       -1.15232       -1.61285
C         -0.44833       -2.83699       -1.87742
H         -0.55308       -2.73915       -2.96497
H         -0.38565       -3.90092       -1.63321
H         -1.34272       -2.43304       -1.39732
H          1.58588       -2.52086       -1.71388
