40
2msa1dma1eda_516.log	Energy: -1038006.2537044
S          0.19046        2.54155        0.24173
O          0.52660        3.91013       -0.12250
O          0.64787        1.50637       -0.75796
O         -1.26701        2.31159        0.51213
H         -1.94739        1.17393       -0.24143
C          1.03215        2.14219        1.76255
H          2.09803        2.31835        1.61186
H          0.64396        2.80262        2.53825
H          0.85211        1.09282        1.99979
S          2.27228       -1.31228       -0.00261
O          1.49907       -2.10159       -0.96207
O          1.69173       -1.11845        1.32161
O          2.68444        0.06678       -0.63197
H          1.87343        0.71277       -0.68439
C          3.88015       -2.04774        0.16183
H          3.72971       -3.03412        0.60157
H          4.32751       -2.12865       -0.82832
H          4.48154       -1.41912        0.81767
N         -2.36069       -2.13169        1.45755
C         -1.62973       -1.14760        2.23428
C         -3.79568       -1.97617        1.48110
H         -1.99116       -2.23554        0.51892
H         -1.83869       -1.29321        3.30025
H         -0.55761       -1.27901        2.07446
H         -1.88913       -0.09886        1.99185
H         -4.17513       -2.16594        2.49147
H         -4.15185       -0.96163        1.20163
H         -4.26247       -2.70071        0.80797
H         -3.25087        0.02170       -2.68080
H         -2.14025        1.41196       -2.56286
H         -1.03871       -0.65851       -3.54998
H         -0.25412       -0.05090       -2.08602
H         -1.82505       -2.48405       -2.30644
H         -0.44791       -2.16099       -1.45835
H         -3.53075        0.66618       -0.49593
H         -2.34615       -0.50093       -0.38762
C         -2.34024        0.39973       -2.20753
C         -1.15607       -0.53275       -2.46734
N         -2.56829        0.44446       -0.73884
N         -1.35217       -1.78723       -1.74193
