42
2msa2eda_104.log	Energy: -1072767.8324434
S         -2.50931       -1.59547       -0.14526
O         -1.72575       -2.56237       -0.94044
O         -3.31078       -0.62930       -0.91018
O         -1.61307       -0.88727        0.85502
C         -3.64046       -2.54981        0.85283
H         -4.29483       -3.10145        0.17729
H         -3.06124       -3.23577        1.47088
H         -4.21825       -1.86485        1.47347
S          2.47342        1.45233        0.17675
O          3.28106        0.40869        0.83865
O          1.76961        2.38514        1.07220
O          1.51051        0.84103       -0.81966
C          3.60432        2.41776       -0.81230
H          3.03812        3.19043       -1.33255
H          4.33596        2.86586       -0.13928
H          4.09209        1.75197       -1.52467
H          2.19944       -1.63552        1.54791
H          1.26880       -3.15653        1.49062
H          3.67281       -3.45912        0.88361
H          2.58248       -3.95146       -0.41868
H          3.85101       -1.29685       -0.34501
H          4.27977       -2.54510       -1.34824
H          0.03549       -1.39143        0.47469
H          1.30636       -0.97337       -0.52781
C          1.81829       -2.42410        0.89549
C          2.96053       -3.08173        0.13295
N          0.86301       -1.77040       -0.03047
N          3.52009       -2.13601       -0.81907
H          0.45382       -2.41037       -0.71759
H         -1.46083        3.04731       -1.49025
H         -2.17511        1.42037       -1.69144
H         -3.91690        3.04353       -0.98946
H         -3.66255        1.77276        0.20503
H         -2.73081        4.54643        0.43803
H         -3.55733        3.64818        1.52777
H         -0.04762        1.44505       -0.40946
H         -0.82520        2.35385        0.75802
C         -1.94332        2.21072       -0.97657
C         -3.20419        2.65595       -0.24922
N         -0.97772        1.67302        0.00832
N         -2.85184        3.60797        0.80298
H         -1.32948        0.78421        0.42721
