38
2msa1ma1tma_14.log	Energy: -1003293.4310582
S          1.94649       -0.93594       -0.43424
O          1.09345       -2.06968       -0.83324
O          1.99813       -0.75803        1.05166
O          1.62978        0.34315       -1.12570
H          0.68886        1.44630       -0.04153
C          3.61100       -1.34965       -0.93607
H          3.89365       -2.27919       -0.44151
H          3.61594       -1.47568       -2.01908
H          4.27736       -0.53919       -0.63950
S         -2.40980        0.05998       -0.40590
O         -3.06496        1.35642       -0.63365
O         -3.25081       -1.04080        0.09101
O         -1.19452        0.23716        0.49387
H         -0.84731       -1.05283        1.25290
C         -1.71749       -0.46863       -1.96626
H         -2.54245       -0.64534       -2.65737
H         -1.05965        0.31859       -2.33582
H         -1.13269       -1.37398       -1.79777
N         -0.47031       -1.91253        1.78188
H          0.55451       -1.81334        1.67678
C         -1.00274       -3.16714        1.19898
H         -0.70692       -4.01727        1.81540
H         -2.08698       -3.08084        1.13289
H         -0.57573       -3.26218        0.20197
H         -0.72124       -1.81464        2.76222
N          0.69905        2.38242        0.42332
C         -0.36607        3.20918       -0.20084
H         -0.14944        3.30387       -1.26554
H         -1.32963        2.71178       -0.07244
H         -0.36481        4.19529        0.26963
C          0.46556        2.17625        1.87465
H         -0.54522        1.79374        2.00021
H          1.18728        1.43742        2.22624
H          0.59787        3.13109        2.38918
C          2.05125        2.93625        0.17332
H          2.78586        2.26107        0.61133
H          2.21498        2.98976       -0.90198
H          2.11994        3.92834        0.62527
