25
2msa1ma_20.log	Energy: -893808.5066905
S         -2.27559       -0.29827        0.03370
O         -2.26599        0.62872       -1.11180
O         -2.09008        0.31595        1.34112
O         -1.25562       -1.46031       -0.20824
H         -0.28942       -1.10017       -0.33426
C         -3.78849       -1.22231        0.00628
H         -3.88599       -1.69988       -0.96793
H         -3.74974       -1.95978        0.80743
H         -4.59565       -0.50888        0.17428
S          2.26706       -0.40535        0.15318
O          2.07260       -1.03539        1.45295
O          2.80889        0.96379        0.13085
O          0.97054       -0.40754       -0.68136
H          0.55686        1.18436       -0.80876
C          3.37208       -1.43572       -0.79661
H          4.32390       -1.47136       -0.26560
H          2.93591       -2.43230       -0.86607
H          3.49878       -0.99452       -1.78498
N          0.09019        2.13290       -0.77761
H          0.54255        2.73607       -1.46024
C          0.17534        2.68782        0.60000
H         -0.27453        3.68043        0.61930
H         -0.37386        2.01603        1.26027
H          1.22578        2.71634        0.88611
H         -0.88571        1.94089       -1.05236
