37
2msa1ma1eda_467.log	Energy: -1013350.5813795
S         -2.54900        0.23162       -0.64350
O         -1.78534       -0.91063       -1.23486
O         -1.75054        1.46094       -0.51342
O         -3.20742       -0.16477        0.63988
H         -2.11222       -0.23125        1.82296
C         -3.87608        0.53959       -1.78918
H         -3.43282        0.82777       -2.74238
H         -4.45495       -0.37787       -1.89283
H         -4.49015        1.34544       -1.38722
S          1.24490       -1.93623        0.12605
O          0.78378       -3.30986        0.22018
O          0.97867       -1.08273        1.30674
O          0.70576       -1.22427       -1.16144
H         -0.31966       -1.08917       -1.16768
C          2.98136       -1.86448       -0.20002
H          3.47426       -2.31383        0.66307
H          3.17194       -2.45179       -1.09867
H          3.28010       -0.81510       -0.33269
N         -1.28021       -0.14354        2.47823
H         -1.48216       -0.61979        3.35410
C         -0.95679        1.29010        2.67585
H         -0.02682        1.37835        3.23790
H         -0.85374        1.73798        1.68628
H         -1.77456        1.77450        3.20925
H         -0.47231       -0.62234        2.02010
H          2.42459        2.62484       -1.99209
H          1.89048        0.93848       -1.87475
H          0.55250        2.27777       -0.37714
H          1.58636        1.20325        0.56942
H          2.05368        4.06943        0.17238
H          1.87748        3.26437        1.58021
H          4.36039        1.25721       -1.74248
H          4.11816        1.95710       -0.27979
C          2.40074        1.74045       -1.33270
C          1.59223        2.07880       -0.08812
N          3.73739        1.28522       -0.94242
N          2.23525        3.18436        0.63555
