41
2msa1dma1tma_166.log	Energy: -1027930.7627685
S         -1.37372        1.84214       -0.11300
O         -2.62331        1.07219        0.06709
O         -0.94090        2.04641       -1.50045
O         -0.26443        1.26355        0.73717
C         -1.67149        3.46005        0.58770
H         -2.47337        3.92909        0.01676
H         -1.96318        3.34016        1.63126
H         -0.75366        4.04308        0.50796
S          2.93835       -0.14609       -0.34203
O          3.07184       -0.07327        1.09980
O          2.16701       -1.22929       -0.93953
O          4.44315       -0.26311       -0.95139
H          4.45010       -0.99229       -1.58760
C          2.41372        1.41700       -0.97850
H          1.42708        1.59928       -0.54280
H          3.13783        2.16743       -0.66159
H          2.34950        1.34533       -2.06358
N         -2.34191       -1.61201       -1.27582
C         -3.48166       -2.29869       -1.85975
C         -1.22937       -1.48191       -2.20778
H         -2.62085       -0.67977       -0.97145
H         -3.21795       -3.34079       -2.07682
H         -4.31316       -2.30451       -1.14881
H         -3.83490       -1.83983       -2.79942
H         -0.82378       -2.47454       -2.43948
H         -1.51135       -0.99511       -3.15539
H         -0.42942       -0.89184       -1.75307
N         -0.57303       -1.11404        1.85083
C          0.36553       -0.86018        2.97002
H          1.37314       -0.76616        2.56262
H          0.08511        0.07615        3.45331
H          0.30999       -1.68726        3.68188
C         -1.98636       -1.15633        2.29704
H         -2.23552       -0.20288        2.76251
H         -2.61399       -1.30011        1.41822
H         -2.11063       -1.97702        3.00808
C         -0.21146       -2.33512        1.08571
H         -0.94780       -2.45022        0.28407
H          0.78504       -2.20465        0.66409
H         -0.23336       -3.18990        1.76716
H         -0.48469       -0.25876        1.22942
