32
2msa2ma_09.log	Energy: -953977.7708500
S          2.76941       -0.05720       -0.16570
O          2.75764       -1.34369       -0.87150
O          1.96372       -0.09351        1.10008
O          2.37462        1.11356       -1.00297
H          0.87565        1.74400       -0.75146
C          4.45155        0.26915        0.33167
H          4.78267       -0.54953        0.97080
H          5.06105        0.32179       -0.57078
H          4.47823        1.21614        0.87068
S         -2.77025       -0.05602       -0.16476
O         -2.76353       -1.34278       -0.87017
O         -2.36624        1.11192       -1.00153
O         -1.96882       -0.09597        1.10343
H         -0.83822       -1.33561        1.06401
C         -4.45215        0.27985        0.32711
H         -4.78940       -0.53654        0.96598
H         -4.47551        1.22735        0.86538
H         -5.05871        0.33488       -0.57716
N          0.00346        2.27827       -0.49419
H         -0.00206        3.13464       -1.04410
C          0.00547        2.56689        0.95917
H         -0.90241        3.11051        1.21998
H          0.02996        1.61477        1.48488
H          0.89245        3.14860        1.21014
H         -0.86568        1.73757       -0.74815
N         -0.00181       -1.97054        0.99796
H          0.83447       -1.33536        1.06212
C         -0.00306       -2.73143       -0.27786
H          0.90090       -3.33552       -0.33362
H         -0.90768       -3.33465       -0.33240
H         -0.00329       -2.01716       -1.09781
H         -0.00058       -2.59147        1.80333
