37
2msa1ma1eda_368.log	Energy: -1013357.5454294
S         -0.19829       -1.91627       -0.22989
O          0.28393       -1.03431       -1.34279
O         -1.44482       -2.61713       -0.57670
O         -0.32970       -1.13766        1.04611
H         -1.99230       -0.62041        1.06047
C          1.08526       -3.11621        0.03563
H          1.19753       -3.68401       -0.88828
H          2.00312       -2.57517        0.27337
H          0.77702       -3.76513        0.85552
S          2.97795        0.72288        0.19004
O          4.01057        1.72584        0.02557
O          3.33356       -0.68671        0.29734
O          1.95734        0.91386       -1.01342
H          1.36618        0.10421       -1.12508
C          1.98328        1.14488        1.60789
H          2.62590        1.06399        2.48573
H          1.63404        2.17054        1.48423
H          1.15494        0.43397        1.66163
N         -2.92756       -0.28329        0.73502
H         -3.14400        0.62398        1.17401
C         -3.96699       -1.31795        0.89957
H         -4.90250       -0.96824        0.46135
H         -3.62011       -2.21655        0.38962
H         -4.11135       -1.52252        1.96059
H         -2.76966       -0.01311       -0.26734
H         -2.30908        3.75902       -1.00535
H         -1.48550        3.69059        0.54970
H         -0.27947        2.40461       -1.14529
H         -0.78496        1.39063        0.19421
H         -2.20460        1.49218       -2.37536
H         -1.22621        0.29594       -1.82615
H         -3.67180        3.33734        1.08363
H         -3.97436        2.36566       -0.18032
C         -2.05851        3.09327       -0.16550
C         -1.16020        1.96581       -0.65971
N         -3.27038        2.59911        0.51483
N         -1.87942        1.02661       -1.53264
