38
2msa1ma1tma_03.log	Energy: -1003298.1378247
S         -3.01838       -0.07917        0.01079
O         -3.03466        1.29314       -0.52618
O         -2.01771       -0.26823        1.10127
O         -2.86530       -1.13273       -1.03880
C         -4.62283       -0.35497        0.74495
H         -4.77200        0.39566        1.52149
H         -5.37516       -0.25293       -0.03746
H         -4.64298       -1.35836        1.17065
S          2.69213       -0.63384        0.23464
O          2.29512       -1.86538        0.93189
O          3.04441        0.51547        1.08372
O          1.63961       -0.23824       -0.79196
C          4.14125       -1.02862       -0.73273
H          4.92621       -1.33472       -0.04061
H          3.89270       -1.84193       -1.41472
H          4.44410       -0.13959       -1.28628
N         -0.43174       -2.09008       -0.30189
H         -0.62908       -1.79330        0.66016
H         -1.32100       -1.85522       -0.80149
C         -0.04529       -3.51004       -0.40372
H          0.11820       -3.75479       -1.45348
H          0.87334       -3.65928        0.16218
H         -0.84961       -4.13034       -0.00817
H          0.32365       -1.45591       -0.62659
N          0.71921        2.26799       -0.18123
C          1.93154        3.12192       -0.22003
H          2.66842        2.70044        0.46322
H          2.32837        3.12172       -1.23640
H          1.65709        4.13840        0.07094
C         -0.29025        2.70090       -1.18247
H          0.14146        2.58823       -2.17812
H         -1.19514        2.09656       -1.07870
H         -0.53346        3.75009       -0.99898
C          0.14838        2.18968        1.19202
H         -0.68088        1.47817        1.19114
H          0.93717        1.84528        1.86179
H         -0.20197        3.18353        1.47996
H          1.02994        1.29579       -0.43326
