30
2msa1eda_50.log	Energy: -953204.1240580
S          1.69072       -1.37072       -0.04236
O          2.88833       -1.01328       -0.80201
O          0.43638       -1.14832       -0.84747
O          1.58004       -0.69979        1.28772
H          0.95555        0.81561        1.23961
C          1.75197       -3.11750        0.30110
H          1.79892       -3.64196       -0.65342
H          2.64774       -3.31190        0.89110
H          0.85505       -3.39462        0.85559
S         -2.61802        0.08287       -0.08794
O         -2.44433        0.84316       -1.31518
O         -2.20586        0.76507        1.15478
O         -1.93775       -1.31934       -0.17260
H         -0.91849       -1.26291       -0.43225
C         -4.31198       -0.40610        0.10388
H         -4.89440        0.51006        0.20425
H         -4.60841       -0.95864       -0.78719
H         -4.39616       -1.02093        0.99929
H          2.07316        3.75400        0.21830
H          2.13184        3.21887       -1.44828
H         -0.13962        2.93901       -0.53877
H          0.54203        1.36391       -0.97534
H          0.63044        2.39267        1.78476
H         -0.59897        1.42622        1.18280
H          3.23383        1.77611        0.87363
H          3.19515        1.15958       -0.63870
C          2.03622        2.85908       -0.41837
C          0.64893        2.21966       -0.30395
N          3.17811        2.02677       -0.10658
N          0.39957        1.70032        1.07393
