40
2msa1dma1eda_520.log	Energy: -1038008.6285768
S         -0.25348       -2.12192       -0.06826
O          0.61472       -3.16312        0.47120
O         -0.42686       -0.93700        0.84982
O         -1.62807       -2.58640       -0.45330
H         -2.68723       -1.54571       -0.02111
C          0.49488       -1.50824       -1.56460
H          1.55417       -1.32731       -1.35976
H          0.39259       -2.28952       -2.31889
H         -0.01716       -0.59303       -1.86622
S         -0.36414        2.30897       -0.03570
O         -1.58077        2.74481        0.64194
O         -0.53809        1.65565       -1.33536
O          0.48648        1.37851        0.90991
H          0.14713        0.40241        0.87662
C          0.77446        3.65894       -0.20113
H          0.31688        4.37983       -0.87944
H          0.92711        4.09785        0.78470
H          1.70716        3.26200       -0.61090
N         -3.49367       -0.84885        0.13418
C         -3.52828        0.06696       -1.03347
C         -3.35663       -0.15465        1.43969
H         -4.33830       -1.41931        0.14498
H         -2.56671        0.57802       -1.10270
H         -3.69482       -0.52403       -1.93432
H         -4.32595        0.80010       -0.90329
H         -2.52634        0.54591        1.37699
H         -4.27910        0.38741        1.65581
H         -3.15146       -0.89734        2.20963
H          4.78937        0.68559        0.27939
H          3.46188        1.40398        1.18192
H          3.78921       -0.90322        1.90090
H          2.20655       -0.70058        1.16338
H          4.47936       -2.03691       -0.08979
H          2.95907       -2.59679        0.18577
H          3.40056        0.45090       -1.58388
H          2.08137        0.93292       -0.78124
C          3.70090        0.65743        0.41602
C          3.27823       -0.71872        0.94205
N          3.08585        1.07062       -0.84356
N          3.50152       -1.76977       -0.04920
