35
2msa1ma1dma_69.log	Energy: -978628.8996361
S         -0.73674        1.80225        0.22660
O          0.10071        1.39005        1.37107
O         -2.18866        1.73669        0.47873
O         -0.36925        1.03143       -1.01686
C         -0.34419        3.50634       -0.12881
H         -0.60525        4.10058        0.74734
H          0.72367        3.57825       -0.33842
H         -0.92850        3.81870       -0.99446
S          2.65416       -0.61413       -0.36108
O          3.82860       -1.21850       -0.95297
O          1.57689       -1.50053        0.10388
O          2.06406        0.41433       -1.39574
H          1.07984        0.64581       -1.21871
C          3.13843        0.40493        1.01286
H          3.56575       -0.25793        1.76645
H          3.88688        1.11339        0.65752
H          2.24386        0.90866        1.38678
N         -2.90937       -0.63639       -1.10660
H         -3.02679        0.27523       -0.65899
C         -4.19456       -1.26802       -1.40704
H         -4.83598       -0.66543       -2.06184
H         -4.02879       -2.23683       -1.88628
H         -4.73524       -1.44431       -0.47315
H         -2.37640       -0.44717       -1.95106
N         -1.11243       -1.65236        0.72202
C         -1.60366       -1.32272        2.07610
C         -0.94834       -3.09860        0.47605
H         -1.80082       -1.26230       -0.00833
H         -0.88820       -1.68156        2.81780
H         -1.70539       -0.24100        2.15550
H         -2.57104       -1.80618        2.22712
H         -0.24048       -3.51351        1.19466
H         -1.91859       -3.58961        0.57401
H         -0.55334       -3.23796       -0.52973
H         -0.19611       -1.20497        0.55763
