30
2msa1eda_07.log	Energy: -953208.9002898
S          1.99080       -1.22956        0.04841
O          1.15194       -2.33157        0.60056
O          2.45715       -0.25402        1.03990
O          1.27144       -0.58598       -1.10842
H          0.97132        0.90483       -1.19079
C          3.42965       -2.00958       -0.65562
H          3.96012       -2.51778        0.15005
H          3.10199       -2.72121       -1.41305
H          4.05344       -1.23157       -1.09595
S         -0.22241        2.33873       -0.07280
O         -0.85422        3.58822       -0.43630
O          0.68482        1.88355       -1.27339
O         -1.09589        1.21513        0.31659
H         -1.11192       -0.48666       -0.14738
C          0.93226        2.60007        1.25070
H          1.61087        3.39565        0.94281
H          0.35685        2.90060        2.12720
H          1.47130        1.66431        1.42303
H         -2.51084       -2.72249        1.17321
H         -2.09189       -1.13967        1.86556
H         -4.49757       -1.18983        1.14465
H         -3.55555       -0.00122        0.23558
H         -4.49099       -2.58094       -0.77617
H         -4.54229       -1.10816       -1.48872
H         -0.44206       -1.97297        0.19345
H         -1.69844       -1.82400       -0.95799
C         -2.40675       -1.65569        0.95747
C         -3.70128       -1.07327        0.39848
N         -1.34273       -1.49415       -0.05644
N         -3.98923       -1.70690       -0.88829
