42
2msa2eda_423.log	Energy: -1072750.2594047
S          2.59657        0.59063        0.15254
O          1.96992        1.51174        1.10052
O          2.11674        0.62586       -1.22616
O          2.57382       -0.87571        0.70718
H          1.60620       -1.26879        0.72074
C          4.35046        0.87487        0.16646
H          4.50771        1.89124       -0.19575
H          4.71096        0.76720        1.18894
H          4.82203        0.15061       -0.49700
S         -0.54091       -2.43248       -0.30978
O         -0.78710       -3.83944       -0.01809
O          0.24085       -1.72257        0.77030
O         -1.76624       -1.63760       -0.62259
H         -2.38987       -0.54186        0.42446
C          0.48283       -2.33709       -1.76889
H          1.38473       -2.92234       -1.58464
H         -0.08172       -2.75990       -2.60026
H          0.73994       -1.29225       -1.95102
H         -0.03868        2.59432       -1.15014
H         -0.41560        1.07646       -0.35388
H         -0.27206        0.75452       -2.76395
H         -1.91114        0.41797       -2.19689
H         -1.06186        2.85102       -3.59904
H         -2.22845        1.79542       -4.03310
H         -1.76692        3.00560        0.38904
H         -2.52660        2.96449       -1.09772
C         -0.82865        1.84396       -1.01472
C         -1.17970        1.21708       -2.35437
N         -2.03253        2.41708       -0.39602
N         -1.77588        2.22715       -3.23576
H         -3.24345        0.91219        2.90187
H         -2.80555       -0.80693        2.78007
H         -0.90280        0.26648        3.70316
H         -0.50080       -0.11422        2.03582
H         -0.91276        2.51817        3.17364
H          0.14454        2.00534        2.02714
H         -3.89523        0.04405        0.79544
H         -2.65381        1.14969        0.45988
C         -2.58445        0.19529        2.40273
C         -1.12044        0.53550        2.66026
N         -2.90376        0.21476        0.95097
N         -0.81692        1.93176        2.35236
