35
2msa1ma1dma_347.log	Energy: -978606.8990726
S          2.53093       -0.70913       -0.33303
O          3.37954       -1.77412       -0.83803
O          1.87660       -0.89867        0.96072
O          1.42616       -0.32870       -1.41383
H          0.54799       -0.77625       -1.20507
C          3.44698        0.81081       -0.31579
H          4.24511        0.68270        0.41696
H          3.86690        0.96028       -1.31086
H          2.77223        1.62781       -0.03606
S         -1.63508       -1.25707        0.32439
O         -0.88988       -1.39825       -0.95658
O         -3.08594       -1.54378        0.14700
O         -1.43707        0.09404        0.93861
H         -2.67989        1.04996        0.30973
C         -0.96356       -2.44339        1.45870
H         -1.10834       -3.43318        1.02514
H          0.09777       -2.21155        1.56999
H         -1.49524       -2.34815        2.40524
N         -3.52905        1.08474       -0.31990
H         -3.84710        0.09649       -0.22363
C         -3.11114        1.35767       -1.71789
H         -3.97458        1.29037       -2.37895
H         -2.66434        2.34994       -1.77188
H         -2.37150        0.60411       -1.99257
H         -4.22966        1.73615        0.02469
N          1.06496        3.00153        0.58242
C          0.78815        2.36675        1.86612
C          0.00884        2.78947       -0.39065
H          1.22114        3.99501        0.71179
H          0.72392        1.28437        1.72777
H          1.60405        2.58118        2.56191
H         -0.16009        2.70354        2.32051
H         -0.07649        1.71901       -0.59583
H         -0.98091        3.14767       -0.03954
H          0.25306        3.30375       -1.32487
