40
2msa1dma1eda_253.log	Energy: -1038018.3105584
S          2.04125        1.47521       -0.08969
O          1.86511        1.66619        1.35186
O          0.73766        1.23355       -0.81061
O          3.01246        0.41091       -0.45977
H          2.39848       -1.12332       -0.00740
C          2.69095        2.99018       -0.77124
H          1.98306        3.78938       -0.54984
H          3.65193        3.18538       -0.29493
H          2.81062        2.86188       -1.84690
S         -2.50642        0.84456        0.12696
O         -2.43184        0.34101        1.49579
O         -2.37303       -0.14714       -0.94179
O         -1.50823        2.02612       -0.09746
H         -0.54606        1.70289       -0.35295
C         -4.04598        1.70816       -0.07162
H         -4.83958        0.97542        0.07720
H         -4.09737        2.49143        0.68422
H         -4.08388        2.12563       -1.07710
N         -0.12053       -2.08398       -1.34422
C         -0.76706       -3.38860       -1.45121
C          0.38726       -1.57741       -2.62004
H         -0.80610       -1.41633       -0.98862
H         -0.03458       -4.13667       -1.77572
H         -1.14735       -3.66719       -0.46619
H         -1.59477       -3.38417       -2.17347
H          1.17742       -2.24171       -2.98860
H         -0.39980       -1.52036       -3.38383
H          0.80221       -0.57998       -2.46038
H          1.79020       -3.02168        2.15096
H          2.62050       -1.45158        2.22344
H          0.50893       -1.10933        3.25109
H          0.39250       -0.34797        1.68115
H         -0.85512       -2.86485        2.46823
H         -1.50515       -1.55680        1.72542
H          2.59187       -2.76776        0.03305
H          1.01106       -2.10854       -0.29959
C          1.77616       -1.99041        1.78535
C          0.46486       -1.32147        2.17329
N          1.96138       -2.01889        0.30887
N         -0.67521       -2.14253        1.77864
