38
2msa2dma_198.log	Energy: -1003273.0842519
S          1.60751        1.88612        0.12468
O          2.61370        1.46620       -0.84921
O          1.65400        1.22568        1.42948
O          0.16755        1.79079       -0.48860
H         -0.09690        0.78970       -0.61804
C          1.71433        3.64420        0.34976
H          2.69875        3.84796        0.77189
H          1.60243        4.12318       -0.62244
H          0.92725        3.95287        1.03695
S         -0.97987       -1.54633        0.20821
O         -2.21787       -2.12068       -0.30680
O         -0.28176       -0.63850       -0.77805
O          0.01786       -2.56475        0.68314
H          1.39450       -2.40672        0.05101
C         -1.36981       -0.53134        1.61572
H         -2.08978        0.22751        1.28396
H         -1.80927       -1.18156        2.37323
H         -0.44623       -0.07524        1.97744
N         -3.71833        1.24334        0.04807
C         -4.74401        0.21918        0.20183
C         -3.18508        1.29865       -1.30727
H         -4.09704        2.14919        0.30192
H         -4.28723       -0.76368        0.04918
H         -5.15195        0.25543        1.21639
H         -5.57747        0.32501       -0.51441
H         -2.69815        0.34680       -1.53853
H         -3.95924        1.47864       -2.07375
H         -2.43109        2.08747       -1.37457
N          2.41799       -2.38705       -0.29433
C          3.23605       -1.71155        0.74269
C          2.50365       -1.75820       -1.63683
H          2.69226       -3.36620       -0.36240
H          2.83473       -0.70955        0.89849
H          3.16079       -2.28001        1.66996
H          4.27463       -1.65299        0.41229
H          2.30272       -0.69284       -1.53224
H          3.50623       -1.91052       -2.04185
H          1.75142       -2.21075       -2.28201
