35
2msa1ma1dma_139.log	Energy: -978622.6722824
S          1.66315       -1.62591        0.16579
O          2.24190       -2.71426       -0.61296
O          0.73158       -0.73849       -0.63891
O          2.64666       -0.74258        0.85858
H          2.73983        0.73420        0.10240
C          0.64390       -2.34131        1.44346
H         -0.07633       -3.00657        0.96586
H          1.29687       -2.90227        2.11247
H          0.11835       -1.54460        1.97038
S         -2.47270       -0.29607       -0.19475
O         -2.25535        1.08461       -0.63542
O         -2.25323       -0.57935        1.21868
O         -1.65257       -1.28424       -1.09799
H         -0.63151       -1.11899       -0.95954
C         -4.12057       -0.78136       -0.64576
H         -4.80061       -0.15731       -0.06529
H         -4.25268       -0.61101       -1.71361
H         -4.25189       -1.83330       -0.39408
N          2.65381        1.65034       -0.41004
H          1.66958        2.05523       -0.12412
C          2.71505        1.42510       -1.87061
H          2.58072        2.37295       -2.39391
H          3.67358        0.98039       -2.14025
H          1.91255        0.73319       -2.12606
H          3.39303        2.27201       -0.09193
N          0.19825        2.42887        0.38235
C         -0.23664        3.82160        0.28930
C          0.15651        1.91694        1.75595
H         -0.45089        1.86264       -0.16734
H          0.46326        4.46492        0.83317
H         -0.25189        4.13116       -0.75869
H         -1.24026        3.97050        0.71000
H          0.81650        2.51967        2.38934
H         -0.85630        1.93752        2.17625
H          0.51519        0.88548        1.76214
