44
2msa2tma_52.log	Energy: -1052597.3059482
S          2.61332       -1.54707       -0.35775
O          2.90698       -0.37322       -1.18495
O          1.44373       -2.34458       -0.69327
O          2.59500       -1.13330        1.15702
H          1.70312       -0.66347        1.44852
C          4.05353       -2.59066       -0.35205
H          4.19119       -2.94430       -1.37435
H          4.91106       -2.00191       -0.02770
H          3.87012       -3.42512        0.32408
S         -0.71518        0.17203        1.13945
O         -1.65828        1.11204        1.74848
O          0.56319        0.06796        1.93636
O         -0.38352        0.49156       -0.28736
H          0.79132        1.53872       -0.44995
C         -1.42923       -1.45251        1.10919
H         -1.59490       -1.75686        2.14343
H         -2.37685       -1.39851        0.56010
H         -0.71710       -2.11175        0.60891
N          1.36774        2.43527       -0.48437
C          0.40187        3.50373       -0.12941
H         -0.40210        3.50657       -0.86537
H         -0.02216        3.28173        0.85106
H          0.91503        4.46813       -0.12034
C          2.45370        2.32625        0.52228
H          2.00514        2.07356        1.48376
H          3.12530        1.52600        0.21395
H          2.98269        3.28100        0.57708
C          1.89517        2.58292       -1.86044
H          2.52542        1.72069       -2.07643
H          1.05532        2.60479       -2.55583
H          2.46403        3.51347       -1.93080
N         -4.26165       -0.72155       -0.56262
C         -3.57661       -0.07912       -1.67187
H         -2.72534        0.49706       -1.29953
H         -3.19089       -0.83935       -2.35800
H         -4.24495        0.59596       -2.24214
C         -5.34010       -1.57289       -1.02747
H         -4.94818       -2.33112       -1.71227
H         -5.80225       -2.08448       -0.17769
H         -6.12994       -1.00474       -1.55777
C         -4.73497        0.25846        0.40199
H         -5.20804       -0.25361        1.24575
H         -3.89087        0.83673        0.78763
H         -5.47593        0.95475       -0.03790
