35
2msa1a1tma_12.log	Energy: -978629.7142250
S         -2.08613       -1.59447       -0.05526
O         -2.57491       -2.89157       -0.46979
O         -1.43220       -0.90814       -1.31280
O         -1.13845       -1.54549        1.07037
H          0.29184       -0.69853        1.60305
C         -3.44776       -0.52750        0.34770
H         -4.13973       -0.53950       -0.49445
H         -3.91970       -0.93586        1.24209
H         -3.05320        0.47721        0.52213
S         -0.31321        2.23835        0.03314
O          0.54863        2.38062        1.23694
O         -1.75636        2.25276        0.29428
O          0.11379        1.02468       -0.75607
H         -0.86642       -0.09058       -1.07070
C          0.06519        3.63569       -1.00706
H         -0.21332        4.54009       -0.46570
H          1.13433        3.62804       -1.21955
H         -0.51460        3.54239       -1.92551
N          1.17329       -0.21913        1.86326
H          1.01615        0.80867        1.74678
H          1.93416       -0.54298        1.17753
H          1.41576       -0.44049        2.82408
N          2.95806       -1.05895       -0.07725
C          3.34919        0.15146       -0.80180
H          2.44783        0.70009       -1.08558
H          3.96031        0.78585       -0.15292
H          3.93068       -0.08834       -1.70690
C          4.12474       -1.80111        0.38924
H          4.73294       -1.16576        1.03975
H          3.80271       -2.67816        0.95818
H          4.75502       -2.14396       -0.44765
C          2.09068       -1.90158       -0.90393
H          1.74893       -2.76339       -0.32392
H          1.21508       -1.32936       -1.21547
H          2.61483       -2.26565       -1.80164
