25
2msa1ma_39.log	Energy: -893798.0282927
S         -2.52557       -0.32426        0.14366
O         -2.91381        1.00077       -0.39863
O         -2.81816       -0.54876        1.55760
O         -1.06842       -0.58976       -0.20346
C         -3.43447       -1.54909       -0.78734
H         -4.49556       -1.39054       -0.59228
H         -3.21526       -1.41932       -1.84715
H         -3.12797       -2.53725       -0.44341
S          2.55595       -0.25912       -0.00325
O          2.14847        0.36846       -1.24980
O          2.48381        0.50876        1.23142
O          4.10138       -0.72056       -0.18463
H          4.61603       -0.33611        0.53987
C          1.74125       -1.81935        0.17230
H          0.66762       -1.60220        0.23505
H          1.96739       -2.41496       -0.71233
H          2.11288       -2.29327        1.08038
N         -0.28353        1.84645       -0.76162
H         -0.49062        0.80883       -0.57216
H          0.56311        1.89819       -1.32787
C         -0.15257        2.56751        0.52768
H          0.01496        3.62911        0.34448
H         -1.08076        2.42001        1.07925
H          0.68529        2.13870        1.07684
H         -1.11001        2.16194       -1.27171
