42
2msa2eda_198.log	Energy: -1072759.3561082
S         -0.45407        2.13885       -0.55851
O         -0.90636        1.30501       -1.69336
O          0.99994        2.38572       -0.51525
O         -0.95088        1.60423        0.75788
C         -1.23873        3.72992       -0.75241
H         -2.31851        3.57959       -0.77036
H         -0.94946        4.35836        0.09008
H         -0.89381        4.16178       -1.69214
S         -2.71508       -1.38928        0.44110
O         -3.72162       -2.26804        0.99732
O         -1.30210       -1.77880        0.56351
O         -2.91705        0.03535        1.07907
H         -2.12570        0.66179        0.90750
C         -3.03780       -1.11893       -1.28580
H         -2.88182       -2.07075       -1.79515
H         -4.07419       -0.79586       -1.38502
H         -2.34545       -0.35188       -1.64276
H          0.88693        1.13169        1.99386
H          1.31807       -0.09245        3.20424
H          3.14661        1.52980        2.81214
H          3.64283       -0.13298        2.48064
H          2.69328        1.59989        0.30098
H          4.28153        1.47036        0.71179
H          0.22101       -1.06728        1.27851
H          1.31970       -0.44912        0.19187
C          1.54407        0.28648        2.20444
C          3.01013        0.68806        2.11769
N          1.20236       -0.75990        1.21423
N          3.38838        0.99135        0.73877
H          1.82661       -1.57607        1.25848
H          3.81591       -1.80131       -2.20381
H          3.26978       -3.39433       -1.67631
H          1.52487       -2.18197       -2.90156
H          1.01773       -2.57370       -1.24992
H          2.10146        0.08271       -1.91932
H          0.50801       -0.24167       -1.82628
H          4.33301       -2.49746        0.15460
H          3.62906       -1.02043        0.01195
C          3.14276       -2.32137       -1.50216
C          1.70152       -1.95292       -1.84075
N          3.47172       -2.02765       -0.10266
N          1.42494       -0.55480       -1.50959
