42
2msa2eda_105.log	Energy: -1072766.4619502
S         -1.67475       -1.82778       -0.63912
O         -1.42132       -1.37279        0.77346
O         -0.60777       -2.74293       -1.10531
O         -1.94952       -0.68340       -1.52928
C         -3.16513       -2.80818       -0.57356
H         -3.00460       -3.63060        0.12357
H         -3.98408       -2.17155       -0.23764
H         -3.35977       -3.18633       -1.57734
S          2.01717        1.49654       -0.97220
O          2.91184        2.63509       -1.13883
O          1.31896        1.47046        0.36776
O          2.63697        0.16296       -1.22633
H          1.91671       -1.03856       -0.35888
C          0.70404        1.64719       -2.17790
H          0.21889        2.61458       -2.03647
H          1.16178        1.60253       -3.16660
H         -0.00515        0.82423       -2.05252
H         -1.82598        3.05506       -0.05536
H         -2.13762        1.50669       -0.89499
H         -4.27009        2.51103       -0.04536
H         -3.91623        0.95219        0.70554
H         -3.58739        3.56804        1.98034
H         -4.35419        2.24010        2.54805
H         -0.25326        1.48645        0.74984
H         -1.46801        1.66871        1.94353
C         -2.18091        2.02679        0.06275
C         -3.58871        1.99491        0.64295
N         -1.26537        1.33390        0.99728
N         -3.56567        2.55381        1.99563
H         -1.41371        0.29411        0.96349
H          3.96768       -0.61840        1.05337
H          4.12288       -1.62367        2.50021
H          3.31868       -2.87174        0.42844
H          2.23691       -3.01828        1.83954
H          0.96356       -2.42929       -0.20340
H          0.89851       -1.27357        0.95341
H          2.82765       -0.02456        3.41000
H          2.20261        0.47648        1.97373
C          3.40227       -1.18336        1.80506
C          2.66166       -2.32582        1.10896
N          2.44853       -0.34321        2.52821
N          1.54719       -1.75569        0.32108
