40
2msa1dma1eda_486.log	Energy: -1038008.0520273
S          2.85669       -0.21102       -0.62017
O          3.83012        0.28063       -1.58256
O          1.42519       -0.02356       -1.07483
O          3.00118        0.35370        0.75885
H          1.70564        0.89371        1.44724
C          3.06911       -1.97423       -0.44316
H          4.07743       -2.14652       -0.06578
H          2.32298       -2.35322        0.25827
H          2.94702       -2.42930       -1.42665
S         -0.94901       -1.71623        0.60286
O         -1.22787       -0.38203        1.17901
O         -0.02462       -2.54359        1.36762
O         -0.47941       -1.56468       -0.87651
H          0.36763       -0.93608       -0.96413
C         -2.49954       -2.53103        0.36111
H         -2.92848       -2.69048        1.35120
H         -3.12712       -1.86786       -0.24852
H         -2.30655       -3.48291       -0.13368
N         -3.95281        0.04829       -1.15964
C         -2.87930        0.66602       -1.92761
C         -4.25616        0.77922        0.06364
H         -4.78625       -0.01441       -1.73405
H         -1.94488        0.59801       -1.36445
H         -2.73495        0.12602       -2.86627
H         -3.06852        1.72954       -2.15798
H         -3.39782        0.71190        0.73967
H         -4.47782        1.84682       -0.10862
H         -5.11660        0.32401        0.56232
H         -0.13170        3.12364        2.26747
H          1.46061        3.21879        1.48748
H          0.43121        2.01824       -0.52867
H         -1.13440        2.15334        0.26998
H          0.48798        4.39003       -0.68241
H         -1.08087        4.06198       -0.98212
H          1.07081        1.23781        2.96311
H          0.06281        0.62398        1.78041
C          0.52361        2.65753        1.52880
C         -0.15742        2.63486        0.16293
N          0.85293        1.27327        1.96982
N         -0.36004        4.01286       -0.27216
