41
2msa1dma1tma_73.log	Energy: -1027944.6037762
S          0.21097        2.21302       -0.27081
O          0.92526        2.69574        0.92158
O         -1.27278        2.32510       -0.17772
O          0.61461        0.82593       -0.65934
C          0.67448        3.26434       -1.63446
H          1.75515        3.19756       -1.76204
H          0.15608        2.91877       -2.52892
H          0.37901        4.28443       -1.38858
S         -2.50115       -0.97981       -0.09464
O         -3.66872       -1.82856        0.01676
O         -1.26434       -1.41053        0.56465
O         -2.91266        0.44804        0.43267
H         -2.21564        1.16172        0.24216
C         -2.11524       -0.69512       -1.80915
H         -1.91357       -1.66949       -2.25636
H         -2.97948       -0.22720       -2.28021
H         -1.22916       -0.05838       -1.84902
N          2.36601       -1.48187       -1.18970
C          1.34486       -2.41635       -1.64129
C          3.59963       -1.58285       -1.95220
H          1.99061       -0.53859       -1.25930
H          1.67642       -3.44504       -1.45694
H          0.42343       -2.24920       -1.07607
H          1.11925       -2.32634       -2.71821
H          4.05684       -2.56524       -1.78889
H          3.45507       -1.45816       -3.03933
H          4.30982       -0.82305       -1.61236
N          1.25499       -0.55080        1.76737
C          0.34585        0.04185        2.78603
H          0.28738        1.11647        2.60810
H         -0.63514       -0.41707        2.67123
H          0.75841       -0.16049        3.77679
C          1.35668       -2.02646        1.90530
H          0.35836       -2.45252        1.82134
H          1.99325       -2.38690        1.09641
H          1.79616       -2.25053        2.87994
C          2.59780        0.08733        1.79585
H          3.19383       -0.36423        1.00252
H          2.46826        1.15598        1.62206
H          3.05009       -0.09718        2.77281
H          0.84593       -0.33009        0.83710
