43
2msa1eda1tma_199.log	Energy: -1062671.8308459
S         -2.75430       -1.60880        0.19665
O         -3.61936       -0.43142        0.32422
O         -1.74168       -1.76889        1.23767
O         -2.09815       -1.65404       -1.22336
H         -1.42423       -0.85565       -1.32741
C         -3.76895       -3.06166        0.11295
H         -4.48740       -2.93560       -0.69639
H         -3.12295       -3.92167       -0.06103
H         -4.27706       -3.14768        1.07373
S          0.81889        0.33489       -0.73033
O          1.79418        1.03070       -1.56402
O         -0.56022        0.29251       -1.36779
O          0.69355        0.88733        0.65358
H         -0.82051        1.13741        1.13184
C          1.32140       -1.35956       -0.54403
H          1.34801       -1.81323       -1.53585
H          2.32173       -1.34438       -0.09356
H          0.59696       -1.85986        0.10119
H         -2.73292        3.36611        1.64675
H         -0.99822        3.34320        2.08066
H         -1.52194        4.53004       -0.11414
H         -0.33924        3.22825       -0.25581
H         -2.66726        3.40538       -1.69628
H         -1.79106        2.02128       -1.49320
H         -2.04130        1.13874        2.30044
H         -2.46850        1.16468        0.70964
C         -1.74388        3.00162        1.35913
C         -1.39667        3.44440       -0.06457
N         -1.77819        1.51740        1.39324
N         -2.27867        2.77295       -1.01091
N          4.41842       -0.64601        0.40055
C          4.21383        0.63827        1.05224
H          3.54546        1.25493        0.44726
H          3.74561        0.48715        2.02933
H          5.16625        1.18417        1.19929
C          5.28698       -1.50268        1.18492
H          4.85293       -1.66149        2.17697
H          5.39186       -2.47666        0.69673
H          6.29932       -1.07217        1.31634
C          4.91755       -0.47083       -0.95359
H          5.01867       -1.44700       -1.43914
H          4.20766        0.13124       -1.52750
H          5.90567        0.02825       -0.97590
