34
2msa1a1eda_316.log	Energy: -988690.0844418
S         -2.59385       -1.15551        0.09476
O         -3.72117       -1.99192        0.49798
O         -1.55418       -0.93523        1.13722
O         -3.01398        0.18223       -0.47935
H         -2.50678        1.27550        0.36318
C         -1.77949       -1.97799       -1.26777
H         -1.47742       -2.96929       -0.92555
H         -2.49796       -2.06785       -2.08297
H         -0.91267       -1.38768       -1.57085
S          2.05964       -0.56786       -0.22099
O          1.22047       -0.22940       -1.35854
O          2.31852        0.47175        0.78123
O          3.45194       -1.09766       -0.75775
H          4.22968       -0.65018       -0.25327
C          1.38302       -1.99598        0.58293
H          0.37945       -1.72607        0.93334
H          1.33326       -2.79833       -0.15385
H          2.03833       -2.26787        1.41049
N          5.31468        0.17306        0.60448
H          5.90993       -0.36050        1.22932
H          4.69208        0.75272        1.16368
H          5.90536        0.78167        0.04730
H         -0.12736        2.71357        1.54113
H         -0.23304        1.03468        0.95356
H          0.77501        2.54170       -0.78135
H         -0.73621        1.82505       -1.32269
H         -0.34691        4.60563       -0.51147
H         -1.18691        4.00655       -1.77790
H         -2.31502        1.85014        1.95637
H         -2.41270        2.97088        0.70475
C         -0.58364        2.05308        0.79771
C         -0.30717        2.54094       -0.61645
N         -2.05595        2.05541        0.99450
N         -0.95182        3.84658       -0.80590
