26
2msa2a_67.log	Energy: -904636.8235414
S          2.13385       -0.73581       -0.01191
O          3.32431       -0.19517        0.67379
O          1.88346       -0.14118       -1.34191
O          0.89756       -0.65149        0.84871
C          2.42288       -2.48194       -0.24701
H          3.31861       -2.59148       -0.85884
H          2.56908       -2.94005        0.73142
H          1.55838       -2.91122       -0.75409
S         -2.66915        0.05464       -0.00262
O         -2.48101        1.04797        1.04084
O         -2.16310        0.35032       -1.33732
O         -4.25815       -0.24091       -0.15169
H         -4.54968        0.10622       -1.00752
C         -2.10026       -1.52006        0.56518
H         -1.01674       -1.41452        0.70849
H         -2.60466       -1.74000        1.50620
H         -2.33355       -2.26164       -0.19814
N          0.20811        1.84678       -0.00859
H          1.14277        2.35676        0.01214
H          0.35545        0.93241        0.48864
H         -0.56114        2.35628        0.41997
H         -0.02917        1.59484       -0.96886
N          2.85791        2.71879        0.04858
H          3.21309        2.82094       -0.89769
H          3.22317        1.82322        0.39197
H          3.25683        3.46362        0.61050
