29
2msa1a1ma_81.log	Energy: -929296.0364442
S         -3.08120       -0.00418        0.20319
O         -4.46381       -0.06193        0.63952
O         -2.02759        0.11260        1.21900
O         -2.90808        1.16602       -0.82946
H         -2.02846        1.72573       -0.64273
C         -2.74137       -1.44340       -0.78740
H         -2.87331       -2.31532       -0.14495
H         -3.46139       -1.46448       -1.60558
H         -1.71676       -1.37928       -1.15751
S          1.40178       -0.66699       -0.19521
O          0.52250       -1.07852       -1.27748
O          1.61097        0.78107       -0.00882
O          2.80873       -1.33716       -0.35150
H          3.58551       -0.59285       -0.44947
C          0.80468       -1.36044        1.32446
H         -0.19045       -0.93910        1.49411
H          0.75801       -2.44279        1.20123
H          1.49508       -1.08736        2.12233
N         -0.80461        2.56061       -0.31421
H         -0.95304        2.96084        0.60747
H         -0.62299        3.31836       -0.96445
H          0.03037        1.97194       -0.25937
N          4.57830        0.48220       -0.49614
H          5.42150        0.24614       -1.01091
C          4.88733        0.89903        0.88112
H          5.55983        1.76124        0.92361
H          3.94820        1.15158        1.37668
H          5.34745        0.06200        1.40989
H          4.10994        1.23486       -0.99465
