32
2msa2ma_168.log	Energy: -953957.4749724
S          2.68009       -0.65825       -0.26550
O          2.88754        0.79122       -0.45317
O          1.93283       -1.33484       -1.31584
O          2.05972       -0.92662        1.14007
H          1.13019       -0.42649        1.23601
C          4.26963       -1.41777       -0.06142
H          4.80743       -1.28191       -0.99999
H          4.78602       -0.92556        0.76185
H          4.11383       -2.47640        0.14461
S         -1.36780        0.03095        0.63070
O         -2.49616        0.16347        1.54664
O         -0.03905        0.34933        1.29043
O         -1.48158        0.85986       -0.61213
H         -0.21470        1.77545       -0.84233
C         -1.26653       -1.66201        0.09367
H         -2.23155       -1.90578       -0.36128
H         -0.44108       -1.75447       -0.61465
H         -1.09731       -2.28042        0.97643
N          0.64648        2.40709       -0.86026
H          1.48307        1.79487       -0.78439
C          0.59281        3.34220        0.28872
H          1.48605        3.96694        0.29858
H         -0.30313        3.95724        0.20734
H          0.53898        2.73821        1.19403
H          0.68124        2.89578       -1.75190
N         -4.57239       -1.30776       -0.26968
H         -5.43494       -1.80567       -0.08039
C         -4.76990       -0.29432       -1.30476
H         -5.55049        0.44705       -1.07567
H         -3.82963        0.24322       -1.45383
H         -5.03013       -0.78298       -2.24901
H         -4.27144       -0.86580        0.59573
