38
2msa2dma_155.log	Energy: -1003279.5884879
S          1.09671       -0.71065        0.83954
O          0.98204        0.68988        1.29184
O          1.11107       -0.89892       -0.60869
O         -0.02655       -1.57250        1.50185
H         -0.97468       -1.20977        1.22048
C          2.54465       -1.41576        1.56415
H          3.39456       -0.88673        1.11075
H          2.49439       -1.26440        2.64208
H          2.56123       -2.47689        1.31466
S         -2.89287       -0.70928       -0.50750
O         -4.30671       -1.03223       -0.38924
O         -2.19509       -0.58691        0.83416
O         -2.58852        0.51624       -1.30957
H         -1.65626        1.51174       -0.46843
C         -2.07518       -2.05505       -1.34627
H         -2.24220       -2.96547       -0.76930
H         -2.52735       -2.14555       -2.33436
H         -1.01037       -1.82790       -1.42378
N          4.58695        0.17079       -0.44692
C          3.90735        1.41165       -0.79646
C          4.52355       -0.81795       -1.51681
H          5.55573        0.36697       -0.21953
H          2.84551        1.20084       -0.95551
H          3.98972        2.12445        0.02838
H          4.30340        1.88178       -1.71285
H          3.47756       -1.09693       -1.67816
H          4.93309       -0.45320       -2.47388
H          5.07563       -1.71539       -1.22318
N         -1.10254        2.17042        0.15292
C         -2.00501        2.64823        1.22213
C         -0.49741        3.23420       -0.66973
H         -0.34905        1.60052        0.58165
H         -2.82673        3.20589        0.77041
H         -2.39660        1.77214        1.73945
H         -1.44810        3.28520        1.91145
H         -1.28865        3.79631       -1.16801
H          0.09133        3.89891       -0.03514
H          0.14786        2.77139       -1.41670
