42
2msa2eda_201.log	Energy: -1072757.8248596
S         -0.30734        2.33048       -0.41862
O         -0.16392        2.19199        1.05328
O         -1.63605        1.95362       -0.92651
O          0.78774        1.58665       -1.13933
C         -0.04742        4.05052       -0.79825
H         -0.82340        4.62525       -0.29226
H          0.94139        4.33426       -0.43796
H         -0.11929        4.17228       -1.87898
S          2.85242       -0.88960        0.18851
O          2.42915       -1.61138       -1.00455
O          2.14977       -1.21110        1.43664
O          2.85234        0.65764       -0.05512
H          1.98077        1.03061       -0.47882
C          4.58824       -1.14018        0.46043
H          4.72464       -2.20084        0.67281
H          5.12092       -0.85403       -0.44583
H          4.89552       -0.53133        1.31019
H         -2.06086       -1.80894        2.26624
H         -1.34986       -0.63846        3.39987
H         -3.66793       -0.04160        2.82503
H         -2.52887        1.21699        2.32679
H         -4.34503        0.34730        0.69811
H         -2.85333        0.63621        0.10899
H          0.26615       -1.01335        1.70540
H         -0.79236       -0.84342        0.42919
C         -1.72726       -0.77554        2.38295
C         -2.87235        0.19455        2.11199
N         -0.60648       -0.53833        1.44327
N         -3.38037        0.04164        0.75133
H         -0.37841        0.47772        1.40740
H         -1.73958       -3.63746       -1.96303
H         -3.32948       -2.95671       -2.25819
H         -1.58518       -1.49183       -3.15082
H         -2.51565       -0.67532       -1.89010
H          0.13684       -1.86198       -1.43887
H         -0.19907       -0.28526       -1.58390
H         -1.88247       -3.13785        0.26917
H         -3.14546       -2.11020        0.09485
C         -2.41283       -2.82107       -1.67216
C         -1.79441       -1.47845       -2.07091
N         -2.73388       -2.97577       -0.25804
N         -0.59746       -1.17389       -1.28126
