32
2msa2ma_199.log	Energy: -953957.4296913
S          1.28999       -1.13169        0.05333
O          1.13899       -0.25368        1.23422
O          1.47523       -0.43540       -1.21465
O          0.11468       -2.14820       -0.00355
H         -0.83268       -1.72686        0.17326
C          2.65986       -2.21448        0.34341
H          3.55264       -1.58134        0.32066
H          2.51912       -2.69521        1.31079
H          2.68260       -2.94830       -0.46235
S         -2.72226        0.00462       -0.08207
O         -2.15007       -1.25390        0.50094
O         -2.10301        0.37657       -1.36064
O         -2.70606        1.11942        0.91445
H         -1.24069        1.82212        0.92045
C         -4.44051       -0.36284       -0.36518
H         -4.49274       -1.17985       -1.08478
H         -4.89158       -0.65100        0.58406
H         -4.91334        0.53452       -0.76428
N          4.36043        0.51632       -0.62165
H          5.21622        0.70168       -1.13238
C          4.01593        1.63903        0.24535
H          3.86254        2.59577       -0.27902
H          3.10006        1.39290        0.79119
H          4.80672        1.78515        0.98690
H          3.62008        0.35460       -1.29909
N         -0.22088        2.11026        0.84645
H         -0.01693        2.81173        1.55418
C          0.09600        2.58436       -0.52497
H          1.17012        2.74836       -0.61128
H         -0.22529        1.81151       -1.22337
H         -0.45108        3.50684       -0.71847
H          0.32791        1.24952        1.06203
