41
2msa1dma1tma_135.log	Energy: -1027937.0645386
S         -2.73877       -0.50668        0.47623
O         -3.92962        0.10410        1.06122
O         -1.57118       -0.50966        1.43348
O         -2.30829        0.09979       -0.82343
H         -1.28774        1.29061       -0.63904
C         -3.07614       -2.21412        0.10603
H         -3.33711       -2.71426        1.03899
H         -3.91045       -2.24352       -0.59513
H         -2.17778       -2.64262       -0.34261
S          1.01803       -1.49492       -0.69174
O          1.14794       -0.19477       -1.35976
O          0.07213       -2.44987       -1.25126
O          0.72967       -1.26707        0.84001
H         -0.25720       -0.98854        1.03809
C          2.62936       -2.22806       -0.57923
H          2.94678       -2.42781       -1.60377
H          3.31112       -1.52286       -0.08922
H          2.53817       -3.15866       -0.01935
N          4.36017        0.29737        0.82935
C          3.49697        0.48399        1.98751
C          4.11191        1.26692       -0.22786
H          5.33118        0.34500        1.11632
H          2.46308        0.24979        1.71596
H          3.78863       -0.21187        2.77830
H          3.52836        1.51001        2.39504
H          3.12955        1.07523       -0.67231
H          4.13879        2.31381        0.12440
H          4.85899        1.14960       -1.01759
N         -0.84616        2.24964       -0.48285
C         -0.23689        2.66794       -1.76659
H          0.51815        1.93063       -2.03795
H         -1.01504        2.69251       -2.53001
H          0.20752        3.65954       -1.64905
C         -1.98242        3.11561       -0.08400
H         -2.72540        3.10771       -0.88119
H         -2.43455        2.70347        0.81914
H         -1.61935        4.13053        0.09391
C          0.16122        2.13760        0.60072
H         -0.32092        1.70016        1.47570
H          0.95503        1.47649        0.25699
H          0.55456        3.13218        0.82549
