40
2msa1dma1eda_36.log	Energy: -1038036.3734373
S         -2.72324       -0.65009        0.18559
O         -2.72861       -1.54113       -0.98361
O         -3.12509        0.74834       -0.06328
O         -1.38588       -0.71010        0.89990
C         -3.89420       -1.30946        1.36189
H         -4.88210       -1.26802        0.90234
H         -3.61866       -2.34049        1.58427
H         -3.86307       -0.69752        2.26345
S          3.03604        0.23473        0.24320
O          3.17362       -0.89379        1.17546
O          2.64087        1.52287        0.87667
O          2.12015       -0.09004       -0.90428
C          4.63890        0.52405       -0.48495
H          5.32551        0.80189        0.31506
H          4.96533       -0.39757       -0.96708
H          4.54820        1.33033       -1.21277
N          0.49332       -2.21098       -0.46311
C          1.09795       -3.20556        0.44782
C          0.01454       -2.76521       -1.74656
H         -0.29363       -1.73261        0.03009
H          1.91894       -3.70795       -0.06614
H          1.49666       -2.68015        1.31514
H          0.33792       -3.93190        0.74027
H          0.86365       -3.18927       -2.28539
H         -0.73850       -3.52901       -1.55250
H         -0.44630       -1.96449       -2.32255
H          1.18897       -1.44510       -0.65186
H         -1.82830        2.36935        1.18002
H         -0.39343        3.34490        1.59246
H         -2.01545        4.39778       -0.09734
H         -0.33579        4.31006       -0.65179
H         -2.36449        2.30002       -1.37759
H         -1.65041        3.40330       -2.39523
H         -0.42228        0.76940        0.68890
H         -0.12659        1.63349       -0.68516
C         -0.90360        2.80192        0.79563
C         -1.21560        3.70739       -0.39909
N         -0.04785        1.67441        0.34306
N         -1.53425        2.86666       -1.54567
H          0.96214        1.75063        0.59745
