38
2msa1ma1tma_97.log	Energy: -1003277.1227836
S         -3.30822       -0.48718       -0.46440
O         -4.72723       -0.78944       -0.35903
O         -2.61937       -0.38000        0.88481
O         -2.97742        0.74312       -1.25113
H         -2.14889        1.73067       -0.31503
C         -2.50543       -1.83872       -1.30610
H         -2.69177       -2.74928       -0.73524
H         -2.95393       -1.91604       -2.29698
H         -1.43649       -1.63012       -1.37675
S          0.69876       -0.58010        0.84742
O          0.61779        0.85377        1.19130
O          0.71289       -0.88690       -0.57888
O         -0.44730       -1.35941        1.57459
H         -1.38796       -1.00026        1.27722
C          2.12629       -1.26263        1.63234
H          2.99065       -0.78970        1.14459
H          2.07546       -1.03359        2.69640
H          2.11821       -2.33890        1.45894
N         -1.66044        2.28585        0.45349
H         -2.27252        2.20184        1.26456
C         -1.40168        3.68784        0.07192
H         -0.91754        4.21375        0.89501
H         -0.74744        3.69343       -0.79934
H         -2.34406        4.17363       -0.18008
H         -0.78696        1.77609        0.69434
N          4.24364        0.05900       -0.47859
C          3.57460        1.26357       -0.94583
H          2.52469        1.04215       -1.15388
H          3.61580        2.03337       -0.16957
H          4.03738        1.66945       -1.86537
C          5.63564        0.31984       -0.15616
H          5.69978        1.10192        0.60629
H          6.10133       -0.58640        0.24292
H          6.21869        0.64782       -1.03777
C          4.11476       -1.01951       -1.44713
H          4.57694       -1.92875       -1.04934
H          3.05573       -1.22027       -1.63048
H          4.60175       -0.77975       -2.41075
