40
2msa1dma1eda_290.log	Energy: -1038019.7664996
S          1.87350       -0.51368       -1.17460
O          1.42610        0.34145       -2.29007
O          1.55914        0.10804        0.16060
O          3.31296       -0.90314       -1.23787
H          4.13628       -0.36596        0.22041
C          0.92131       -2.01535       -1.24848
H         -0.13646       -1.76109       -1.12525
H          1.10099       -2.47559       -2.22061
H          1.25657       -2.67197       -0.44495
S         -2.92476       -1.00307        0.48251
O         -4.31949       -0.55324        0.40352
O         -2.11006       -0.32039        1.51757
O         -2.22107       -0.96403       -0.85138
H         -1.42435        0.44709       -0.96026
C         -2.95310       -2.73657        0.92091
H         -3.50404       -3.27441        0.14889
H         -1.92583       -3.09656        0.98664
H         -3.45418       -2.83090        1.88476
N          4.01571        0.15319        1.12080
C          4.64364        1.48546        1.01473
C          4.44080       -0.65599        2.27758
H          2.96760        0.25049        1.07708
H          5.72447        1.37220        0.91884
H          4.24327        1.98005        0.12961
H          4.40640        2.06949        1.90510
H          5.51680       -0.82947        2.22572
H          4.19504       -0.12828        3.20018
H          3.91211       -1.60872        2.24904
H         -3.47013        1.85782       -0.04753
H         -3.25106        3.60867       -0.11121
H         -2.27479        2.38983       -2.11547
H         -1.10835        3.41181       -1.23269
H         -0.11031        1.25616       -1.63731
H         -0.43613        1.41007       -0.02536
H         -2.33174        3.31326        1.91968
H         -2.05523        1.70703        1.68566
C         -2.72114        2.65833        0.00469
C         -1.74879        2.52840       -1.16815
N         -1.97517        2.63262        1.26218
N         -0.87391        1.35446       -0.95213
