35
2msa1a1tma_67.log	Energy: -978616.0585899
S          3.30791       -0.48714       -0.20524
O          2.85002       -1.02063       -1.47508
O          3.18739        0.95388        0.03734
O          4.83058       -0.89368        0.00426
H          5.38856       -0.06642        0.23269
C          2.50084       -1.36328        1.10859
H          1.42938       -1.14848        1.03392
H          2.69716       -2.42665        0.97033
H          2.90521       -1.00762        2.05624
S         -1.26264        0.29848       -0.07660
O         -0.58722       -0.59052        0.88111
O         -1.93044        1.47158        0.53317
O         -2.25479       -0.45735       -0.94532
H         -3.58812       -0.26747       -0.39635
C         -0.03490        0.90176       -1.21535
H          0.71144        1.45636       -0.64466
H          0.43562        0.04827       -1.70516
H         -0.52993        1.54703       -1.94112
N          6.07822        1.38222        0.54568
H          5.23162        1.94647        0.49220
H          6.72702        1.70787       -0.16303
H          6.50458        1.52014        1.45560
N         -4.58240       -0.13247        0.06447
C         -4.39178       -0.35594        1.51749
H         -3.98151       -1.35564        1.66604
H         -3.67275        0.37967        1.88041
H         -5.35175       -0.25665        2.03161
C         -5.00135        1.25839       -0.21926
H         -4.21800        1.92166        0.15045
H         -5.10022        1.38228       -1.29853
H         -5.95855        1.46105        0.26946
C         -5.48674       -1.13171       -0.53701
H         -5.54398       -0.95764       -1.61218
H         -5.07931       -2.12735       -0.35750
H         -6.48234       -1.04830       -0.09251
