43
2msa1eda1tma_128.log	Energy: -1062680.1846159
S          2.12405        2.12375        0.15992
O          2.91770        0.95624       -0.49495
O          2.04761        1.98167        1.60722
O          0.83966        2.32240       -0.53483
C          3.17563        3.49031       -0.26411
H          4.14452        3.33376        0.20914
H          3.26855        3.53364       -1.34882
H          2.69712        4.39084        0.12147
S          1.40696       -2.27851       -0.36275
O          0.45590       -1.59020       -1.27002
O          0.77448       -3.16603        0.62228
O          2.33321       -1.29380        0.30496
H          2.62881       -0.01500       -0.16653
C          2.45132       -3.28602       -1.39779
H          2.94997       -2.63745       -2.11835
H          3.17760       -3.78634       -0.75718
H          1.81833       -4.01365       -1.90607
H          0.22847       -0.42976        1.66724
H         -0.77192        0.94475        2.13038
H         -1.52671       -1.20666        3.15902
H         -2.78862       -0.41758        2.20629
H         -1.13270       -2.60530        1.12681
H         -2.70011       -2.72830        1.60784
H         -0.42824        1.09301       -0.15177
H         -0.70469       -0.51178       -0.43375
C         -0.77285        0.00036        1.58280
C         -1.82980       -0.94927        2.13212
N         -1.01231        0.29376        0.14550
N         -2.00544       -2.08728        1.24305
H         -2.02562        0.49846       -0.05551
N         -3.69666        0.83813       -0.60917
C         -3.50115        1.48798       -1.90188
H         -2.98466        2.44191       -1.76237
H         -2.88326        0.85243       -2.54261
H         -4.45761        1.67851       -2.41698
C         -4.32915       -0.46891       -0.76668
H         -3.69923       -1.11010       -1.38763
H         -4.42137       -0.95080        0.20908
H         -5.32836       -0.38602       -1.22686
C         -4.45367        1.68839        0.30085
H         -4.54249        1.19841        1.27484
H         -3.93395        2.64080        0.43868
H         -5.46966        1.89681       -0.07569
