32
2msa2ma_146.log	Energy: -953960.2032706
S          1.69823        0.72975       -0.16649
O          1.14605       -0.23574       -1.16934
O          0.98561        0.65445        1.12778
O          1.72856        2.12094       -0.71019
H          0.22989        2.73529       -0.60449
C          3.38982        0.25248        0.08769
H          3.40096       -0.80114        0.38109
H          3.91641        0.38802       -0.85728
H          3.80598        0.89898        0.86030
S         -2.26202       -0.75892       -0.18914
O         -3.47975       -1.48873       -0.45894
O         -2.28583        0.70233       -0.38327
O         -1.12383       -1.38600       -1.06976
H         -0.25106       -0.85631       -1.07397
C         -1.72891       -1.06156        1.47883
H         -2.49943       -0.66142        2.13927
H         -1.63433       -2.13975        1.60878
H         -0.77160       -0.55448        1.62485
N          2.34986       -2.90978       -0.14447
H          1.98802       -2.31896       -0.88845
C          1.34963       -3.04269        0.91190
H          0.38271       -3.44583        0.57475
H          1.73702       -3.69405        1.70089
H          1.17105       -2.05866        1.35639
H          2.56700       -3.81363       -0.54918
N         -0.77223        2.96423       -0.34174
H         -1.14884        3.66431       -0.97644
C         -0.82409        3.39477        1.07609
H         -1.86275        3.52311        1.37995
H         -0.34578        2.61095        1.66413
H         -0.27562        4.32944        1.19062
H         -1.31754        2.08379       -0.45493
