38
2msa1ma1tma_131.log	Energy: -1003266.1551731
S         -1.00599       -1.69203       -0.76131
O         -0.94557       -3.08130       -1.16994
O         -0.40767       -1.35712        0.55829
O         -2.48667       -1.18085       -0.71047
H         -2.81491       -1.03700        0.30616
C         -0.28268       -0.65203       -1.99438
H          0.76709       -0.94004       -2.07832
H         -0.81793       -0.83030       -2.92767
H         -0.37610        0.38827       -1.65551
S          2.90011       -0.03830        0.30838
O          2.66253        1.39695        0.27465
O          2.79942       -0.78803       -0.93647
O          1.97631       -0.71767        1.41058
H          1.09627       -0.99886        1.02209
C          4.48159       -0.33733        1.06073
H          5.22929        0.10264        0.40008
H          4.49714        0.14805        2.03615
H          4.62640       -1.41325        1.15010
N         -3.16365       -0.83022        1.72155
H         -3.60620       -1.66830        2.08861
C         -3.97212        0.36287        2.01213
H         -4.13708        0.51336        3.08357
H         -3.46627        1.24158        1.60767
H         -4.93852        0.26757        1.51352
H         -2.24239       -0.77230        2.15253
N         -0.82173        2.29526       -0.63566
C         -0.65200        2.03899        0.78350
H         -1.14719        1.09933        1.04534
H          0.41062        1.93078        1.01109
H         -1.06997        2.85204        1.40984
C         -0.02081        3.42926       -1.06570
H          1.03133        3.23386       -0.84419
H         -0.12849        3.56847       -2.14571
H         -0.32071        4.37009       -0.56526
C         -2.22101        2.44985       -0.98336
H         -2.32138        2.62592       -2.05865
H         -2.76241        1.52827       -0.74578
H         -2.70150        3.29434       -0.45072
