35
2msa1ma1dma_75.log	Energy: -978626.5543446
S         -1.70278        1.53863       -0.14553
O         -2.76876        0.54638        0.16987
O         -1.39985        1.69339       -1.56803
O         -0.48876        1.22397        0.69335
C         -2.30265        3.10654        0.45809
H         -3.21833        3.34534       -0.08342
H         -2.49730        3.01307        1.52633
H         -1.53687        3.85857        0.26629
S          2.63753        0.09606        0.13721
O          2.45367       -0.58797       -1.14379
O          2.28888       -0.65852        1.33764
O          1.92645        1.49113        0.13075
H          0.90452        1.40990        0.30635
C          4.32762        0.63340        0.24123
H          4.94602       -0.26451        0.22151
H          4.54073        1.26841       -0.61820
H          4.45992        1.17505        1.17715
N         -0.03371       -2.22541       -1.45172
H          0.85820       -1.73623       -1.34629
C         -0.79205       -1.61785       -2.55854
H         -0.27169       -1.68840       -3.52049
H         -1.76409       -2.11143       -2.65359
H         -0.96740       -0.56193       -2.33951
H          0.19374       -3.19110       -1.66922
N         -1.53792       -1.80559        0.82426
C         -0.73947       -1.75718        2.06538
C         -2.59608       -2.82981        0.81811
H         -1.98198       -0.87407        0.64882
H         -0.25959       -2.72552        2.22139
H          0.02334       -0.98650        1.95917
H         -1.39501       -1.52558        2.90733
H         -2.14783       -3.81851        0.93708
H         -3.29684       -2.64314        1.63400
H         -3.12794       -2.77731       -0.13269
H         -0.89345       -1.98179       -0.02049
