38
2msa1ma1tma_63.log	Energy: -1003279.3487103
S          1.67125       -1.71029       -0.20212
O          1.53192       -1.71704        1.26257
O          2.75784       -0.78999       -0.65863
O          0.38590       -1.43811       -0.92285
H          0.01643       -0.04461       -1.28008
C          2.14430       -3.34506       -0.72529
H          3.08318       -3.59630       -0.23176
H          1.35514       -4.03554       -0.42736
H          2.26491       -3.33653       -1.80845
S         -0.44593        1.97002       -0.49794
O         -0.23176        0.90019       -1.61929
O          0.23973        3.19416       -0.88056
O         -0.08490        1.39295        0.81102
H          1.55652        1.14699        1.27392
C         -2.19822        2.20991       -0.50986
H         -2.47999        2.55355       -1.50554
H         -2.65035        1.23779       -0.26278
H         -2.42738        2.96782        0.24027
N          2.59644        1.08020        1.26332
H          2.89812        0.63405        2.12716
C          3.19402        2.41456        1.03957
H          4.26989        2.31294        0.89970
H          2.73717        2.84334        0.14692
H          2.98337        3.05834        1.89346
H          2.80417        0.40229        0.47886
N         -3.11544       -0.78104        0.39020
C         -3.00882       -1.76856       -0.67283
H         -3.59641       -1.44638       -1.53880
H         -1.96397       -1.87046       -0.97411
H         -3.37955       -2.76233       -0.35524
C         -2.24345       -1.11558        1.50806
H         -1.21316       -1.21563        1.16143
H         -2.27502       -0.31455        2.25268
H         -2.54494       -2.06086        1.99835
C         -4.49108       -0.62024        0.82400
H         -4.55092        0.16128        1.58855
H         -5.11802       -0.32197       -0.02286
H         -4.91167       -1.55059        1.25186
