25
2msa1ma_76.log	Energy: -893787.0866297
S         -2.28238        0.16162        0.06171
O         -3.51856        0.90914        0.04419
O         -1.24889        0.46853        1.04690
O         -1.63622        0.30112       -1.39523
H         -0.66586        0.13001       -1.34594
C         -2.64240       -1.57815        0.15969
H         -3.12184       -1.74871        1.12449
H         -3.31912       -1.83191       -0.65592
H         -1.70213       -2.12817        0.09389
S          1.49476       -1.08532       -0.01824
O          0.70832       -2.26967        0.27440
O          1.02580       -0.22761       -1.11478
O          3.00884       -1.51782       -0.38829
H          3.02051       -1.90797       -1.27524
C          1.84292       -0.14655        1.43332
H          0.86659        0.11926        1.84276
H          2.40577       -0.78512        2.11393
H          2.39240        0.74923        1.11607
N          2.37114        2.51411       -0.23773
H          3.06499        3.23361       -0.40819
C          1.10245        3.10511        0.19618
H          0.66928        3.82130       -0.51545
H          0.36967        2.31085        0.36327
H          1.25178        3.61862        1.15023
H          2.23962        2.00753       -1.10774
