30
2msa1eda_82.log	Energy: -953200.6668071
S          2.55017       -0.25858        0.00164
O          2.08204        0.50447        1.15624
O          2.61776        0.44313       -1.27389
O          1.74002       -1.60343       -0.13805
H          0.76753       -1.45203       -0.40783
C          4.14147       -0.95562        0.37766
H          4.83170       -0.11978        0.49553
H          4.05995       -1.52316        1.30414
H          4.44491       -1.59279       -0.45234
S         -1.89757       -1.23461       -0.05918
O         -1.62435       -1.18172        1.38423
O         -0.66643       -1.25619       -0.90372
O         -2.82011       -0.13824       -0.49983
H         -2.48333        1.14978        0.36733
C         -2.75752       -2.75332       -0.41594
H         -2.11688       -3.57963       -0.10670
H         -3.69090       -2.75699        0.14698
H         -2.94926       -2.79412       -1.48809
H         -0.28246        2.73324        1.63252
H         -0.27471        0.99856        1.24713
H          0.90191        2.36570       -0.52751
H         -0.48370        1.49021       -1.16093
H         -0.32732        4.36298       -0.68529
H         -1.00750        3.55459       -1.92782
H         -2.50733        1.92860        1.86957
H         -2.41065        2.84740        0.45388
C         -0.62780        1.97702        0.92243
C         -0.18933        2.30931       -0.49838
N         -2.12085        1.98350        0.93066
N         -0.87142        3.54078       -0.92413
