40
2msa1dma1eda_444.log	Energy: -1038013.7291432
S         -0.71778        1.79061       -0.43178
O         -1.86465        2.60626       -0.02527
O         -1.05841        0.73343       -1.43410
O          0.00738        1.16601        0.72679
H          0.33702       -0.34583        0.71864
C          0.47439        2.85175       -1.22169
H          0.01158        3.28491       -2.10842
H          0.74792        3.63205       -0.51068
H          1.34477        2.24820       -1.48585
S          0.95267       -2.22973       -0.33792
O          1.95027       -3.17158        0.12394
O          0.56328       -1.31983        0.90476
O         -0.28293       -2.77730       -0.91708
H         -2.04365       -2.12747       -0.79848
C          1.65833       -1.09290       -1.50615
H          2.42197       -0.49289       -0.99663
H          2.08391       -1.70154       -2.30518
H          0.85094       -0.45942       -1.87949
N          3.12543        1.06609        0.54158
C          3.92230        2.27359        0.39940
C          3.71631        0.11534        1.47566
H          2.18838        1.30694        0.85558
H          4.88713        2.02531       -0.05610
H          3.41466        2.98139       -0.26283
H          4.12451        2.78172        1.35820
H          4.65928       -0.26240        1.06524
H          3.92874        0.55546        2.46472
H          3.04398       -0.73496        1.61237
H         -3.50606       -2.14347        1.18892
H         -1.83512       -1.59289        1.45954
H         -3.74406       -0.11245        2.46143
H         -2.47075        0.70807        1.56844
H         -5.19403        0.69556        0.91852
H         -3.95128        1.43961        0.14033
H         -3.47935       -1.19523       -0.94078
H         -1.99841       -0.47905       -0.78499
C         -2.78896       -1.34244        0.99240
C         -3.31198        0.01789        1.46421
N         -2.57520       -1.30567       -0.47988
N         -4.28198        0.55088        0.50652
