41
2msa1dma1tma_62.log	Energy: -1027940.0570497
S         -0.66074       -1.38921        0.15060
O         -0.65301       -0.29431       -0.84672
O         -0.72180       -0.95703        1.53908
O          0.53828       -2.34577       -0.11869
H          1.43081       -1.85085       -0.36424
C         -2.03209       -2.44744       -0.20887
H         -2.92510       -1.82053       -0.09431
H         -1.92575       -2.81270       -1.22996
H         -2.01921       -3.26878        0.50763
S          3.31129       -0.10245       -0.08862
O          2.66791       -1.25081       -0.80832
O          2.93486       -0.03266        1.32967
O          3.08932        1.18769       -0.80895
H          1.63257        1.80904       -0.32949
C          5.05958       -0.42219       -0.19959
H          5.26067       -1.36289        0.31301
H          5.32824       -0.49028       -1.25361
H          5.58319        0.40290        0.28338
N          0.63752        2.01242       -0.04119
C          0.11111        3.16102       -0.80118
C          0.56733        2.15604        1.43127
H          0.11871        1.15441       -0.32299
H          0.67197        4.05840       -0.53530
H          0.22629        2.95929       -1.86626
H         -0.94523        3.30162       -0.56376
H          1.13325        3.04125        1.72605
H         -0.47687        2.25436        1.73242
H          1.00923        1.26554        1.87868
N         -4.12991        0.13353       -0.08675
C         -3.91135        0.58423       -1.45157
H         -2.83706        0.64301       -1.64644
H         -4.34612       -0.13423       -2.15337
H         -4.36916        1.57366       -1.64509
C         -5.54371       -0.04473        0.19484
H         -5.97344       -0.76515       -0.50766
H         -5.67469       -0.43516        1.20836
H         -6.11285        0.90094        0.11133
C         -3.51276        1.03861        0.86792
H         -3.62027        0.64275        1.88133
H         -2.44350        1.11722        0.65442
H         -3.96097        2.05107        0.83413
