29
2msa1a1ma_75.log	Energy: -929301.3003826
S         -1.00059       -1.12684       -0.17610
O         -0.56483       -0.88961        1.23645
O         -0.58460        0.00592       -1.06365
O         -2.45451       -1.38795       -0.26563
H         -3.46265       -0.46053        1.46885
C         -0.13115       -2.56396       -0.75088
H          0.93698       -2.34430       -0.70041
H         -0.40250       -3.40011       -0.10631
H         -0.44178       -2.74799       -1.77950
S          2.82427        0.42864       -0.06143
O          4.04169        1.18524       -0.26688
O          2.68791       -0.90850       -0.62787
O          1.62185        1.33427       -0.57926
H          0.81662        0.77360       -0.78825
C          2.49792        0.31864        1.68608
H          3.28841       -0.29578        2.11924
H          2.52548        1.32588        2.10188
H          1.51917       -0.14809        1.81732
N         -2.93533        0.30185        1.90126
H         -1.96984       -0.08263        1.99737
H         -3.33797        0.59435        2.78584
H         -2.86587        1.10866        1.14313
N         -2.64909        1.98300       -0.17860
H         -2.50887        2.98371       -0.07687
C         -3.74724        1.69982       -1.11742
H         -3.59826        2.16498       -2.09713
H         -3.80679        0.61758       -1.25422
H         -4.69184        2.05898       -0.69915
H         -1.78556        1.58685       -0.56195
