40
2msa1dma1eda_94.log	Energy: -1038030.8201291
S          2.78292       -0.51381       -0.50150
O          4.15099       -0.33438       -0.97355
O          1.93904        0.73283       -0.61618
O          2.65684       -1.06695        0.88017
H          1.34988       -0.36348        1.56636
C          1.98618       -1.71215       -1.56341
H          2.05041       -1.35511       -2.59309
H          2.52665       -2.65416       -1.46464
H          0.95072       -1.82485       -1.23239
S         -2.28542       -1.02846       -0.13792
O         -2.94765       -0.27754        0.95098
O         -0.86265       -1.33433        0.14644
O         -2.43906       -0.36816       -1.47534
H         -1.10844        0.53539       -1.82986
C         -3.14090       -2.58739       -0.28117
H         -4.18837       -2.38264       -0.50271
H         -2.67883       -3.15895       -1.08615
H         -3.04508       -3.11271        0.66938
N          0.66581        0.30175        2.01886
C          1.44830        1.44747        2.52098
C         -0.13112       -0.39814        3.04455
H          0.04678        0.63670        1.26225
H          2.18894        1.08647        3.23570
H          1.95177        1.90454        1.66916
H          0.78091        2.16292        3.00620
H          0.53943       -0.76321        3.82428
H         -0.86320        0.29063        3.47040
H         -0.64635       -1.22468        2.55904
H          0.24017        3.13707       -1.40493
H         -1.05688        3.03507       -2.61659
H         -2.03785        3.73963       -0.52816
H         -2.61513        2.12437       -0.93762
H         -1.09508        2.88827        1.33566
H         -2.01117        1.53719        1.06109
H          0.07347        1.07993       -2.90331
H          0.50592        0.88968       -1.31949
C         -0.66822        2.60113       -1.69144
C         -1.73750        2.68776       -0.60741
N         -0.28614        1.18673       -1.95758
N         -1.28526        2.14356        0.67547
