44
2msa2tma_36.log	Energy: -1052599.7832176
S          3.01503       -0.64280       -0.30073
O          2.59991        0.58743       -1.04716
O          2.83829       -1.87310       -1.08562
O          2.35397       -0.70631        1.03761
C          4.75629       -0.44445        0.02018
H          5.26468       -0.36424       -0.94079
H          4.89508        0.46332        0.60739
H          5.10355       -1.31977        0.56910
S         -0.17919        2.36136        0.14857
O         -0.50038        1.56272        1.33107
O         -0.81630        1.94778       -1.09926
O          1.36728        2.51170       -0.02933
H          1.84221        1.67615       -0.42712
C         -0.58387        4.05880        0.48430
H         -0.04435        4.37116        1.37794
H         -0.29899        4.65839       -0.37968
H         -1.66106        4.10203        0.64820
N         -3.75262       -0.86000       -0.33922
C         -3.58220       -0.24572       -1.64766
H         -2.72300        0.43032       -1.63413
H         -3.40699       -1.01960       -2.40252
H         -4.47275        0.33524       -1.95462
C         -4.89147       -1.75990       -0.32608
H         -4.76155       -2.53615       -1.08676
H         -4.97247       -2.24747        0.65093
H         -5.84759       -1.23936       -0.52838
C         -3.87100        0.15564        0.69405
H         -3.95643       -0.32058        1.67662
H         -2.97862        0.78777        0.69649
H         -4.75852        0.80120        0.54967
N         -0.01849       -1.91051        0.62987
C          0.38083       -3.33769        0.60668
H          1.18050       -3.45182       -0.12671
H          0.74797       -3.61686        1.59503
H         -0.48627       -3.94630        0.33999
C         -1.02682       -1.61584        1.67678
H         -0.65262       -1.98333        2.63342
H         -1.16185       -0.53523        1.71950
H         -1.96672       -2.10231        1.40864
C         -0.46978       -1.45806       -0.71449
H         -0.66510       -0.38717       -0.67897
H          0.32640       -1.66629       -1.42983
H         -1.39338       -1.98225       -0.96418
H          0.85808       -1.36871        0.85964
