35
2msa1ma1dma_63.log	Energy: -978627.2119181
S          2.41208       -0.47898       -0.04143
O          1.65161       -1.65564        0.41198
O          2.62488        0.56991        0.94698
O          1.77628        0.09677       -1.34592
H          0.79810        0.46838       -1.15835
C          3.97220       -1.04058       -0.67429
H          3.78552       -1.78609       -1.44644
H          4.50592       -0.17994       -1.07632
H          4.51481       -1.47613        0.16506
S         -0.96854        2.04957       -0.06172
O         -2.08435        2.74615       -0.68772
O         -0.51884        0.84814       -0.88907
O         -1.18940        1.61981        1.34415
H         -0.97098       -0.04352        1.62175
C          0.44593        3.13596       -0.03605
H          0.66717        3.42791       -1.06318
H          0.17420        4.00883        0.55840
H          1.28602        2.60530        0.41611
N         -0.89878       -1.08671        1.58903
H         -1.48652       -1.37689        0.74279
C         -1.33796       -1.72161        2.84257
H         -1.24651       -2.80489        2.75443
H         -0.72125       -1.37088        3.67044
H         -2.37889       -1.45823        3.03153
H          0.07558       -1.32013        1.34797
N         -2.15714       -1.60417       -0.82210
C         -1.39100       -2.64998       -1.49461
C         -3.59837       -1.72725       -1.01069
H         -1.83943       -0.69449       -1.16091
H         -1.58929       -2.69482       -2.57569
H         -0.32337       -2.47134       -1.33898
H         -1.64249       -3.62434       -1.06180
H         -3.88427       -1.76447       -2.07248
H         -3.95669       -2.64387       -0.53019
H         -4.09909       -0.87382       -0.54724
