37
2msa1ma1eda_283.log	Energy: -1013360.4030573
S          1.48858       -1.80480        0.08149
O          1.13427       -1.52978        1.48728
O          2.90961       -1.62286       -0.24952
O          0.61406       -0.99861       -0.86357
C          1.07882       -3.50929       -0.24844
H          1.68879       -4.13162        0.40668
H          0.01822       -3.65566       -0.04101
H          1.30205       -3.71479       -1.29540
S         -2.65298       -0.17289       -0.08998
O         -3.00848        0.98951       -0.90087
O         -1.96237        0.09573        1.17068
O         -1.85690       -1.22441       -0.93099
H         -0.80983       -1.11679       -0.87311
C         -4.13424       -1.09712        0.23933
H         -4.79102       -0.44818        0.81922
H         -4.59455       -1.35907       -0.71302
H         -3.86638       -1.98709        0.80778
N          3.42760        1.26322        0.27293
H          4.23537        1.69122        0.71264
C          3.30553        1.68469       -1.12803
H          4.18110        1.43226       -1.73764
H          2.43368        1.19206       -1.56698
H          3.14797        2.76690       -1.17681
H          3.55774        0.24871        0.29559
H         -0.99427        2.22469        1.60667
H          0.51413        2.98394        2.17649
H         -0.60643        4.26821        0.30073
H          1.04212        3.76302       -0.09128
H         -1.37477        2.37814       -1.06292
H         -0.14933        3.05428       -1.94005
H          0.54337        0.45295        1.62727
H          0.42963        0.93918        0.06788
C          0.02571        2.49699        1.32975
C          0.02602        3.39389        0.08956
N          0.73790        1.24551        1.00461
N         -0.38273        2.60734       -1.06341
H          1.79093        1.35654        0.91707
