43
2msa1eda1tma_49.log	Energy: -1062691.1246285
S          2.63327        1.19262       -0.13286
O          1.73976        0.46902        0.81809
O          1.85695        2.15986       -0.96353
O          3.49404        0.28925       -0.91713
C          3.71667        2.19626        0.87240
H          4.35662        2.77544        0.20632
H          3.10390        2.85558        1.48741
H          4.31570        1.53441        1.49854
S         -2.27447       -1.22594       -0.24690
O         -2.03855       -2.52649       -0.89580
O         -2.75715       -0.15107       -1.15242
O         -1.08140       -0.76792        0.54158
C         -3.56743       -1.46870        0.96320
H         -4.47102       -1.78178        0.43898
H         -3.24337       -2.24215        1.66013
H         -3.72430       -0.52402        1.48683
H         -1.01740        2.89000        1.35238
H         -0.66092        3.85955       -0.09454
H         -2.97280        4.18828        0.60625
H         -2.90379        3.44730       -0.99264
H         -4.49949        2.46679        0.71232
H         -3.51071        1.37410       -0.00594
H         -0.80341        0.93361        0.18600
H         -1.33705        1.55029       -1.21714
C         -1.23847        3.01586        0.29111
C         -2.72564        3.26050        0.08064
N         -0.76109        1.79202       -0.40574
N         -3.53249        2.17654        0.62408
H          0.24066        1.90649       -0.69971
N          1.44113       -2.27517        0.24499
C          1.35765       -2.34037       -1.24061
H          0.30893       -2.25059       -1.52600
H          1.95671       -1.52396       -1.64696
H          1.75555       -3.30370       -1.56769
C          2.84801       -2.37508        0.71361
H          3.43312       -1.60055        0.21706
H          2.86577       -2.22473        1.79332
H          3.22533       -3.36925        0.46404
C          0.58296       -3.30401        0.88695
H          0.53487       -3.09956        1.95676
H         -0.41160       -3.25735        0.44516
H          1.03397       -4.28330        0.71053
H          1.09951       -1.32958        0.51138
