42
2msa2eda_429.log	Energy: -1072748.9491586
S          0.08884        1.94920       -0.91690
O         -1.12738        2.54740       -1.46450
O          0.50273        0.67093       -1.71594
O          0.03746        1.64779        0.52764
H         -1.08643        0.39310        1.11200
C          1.49129        2.97383       -1.22942
H          1.57978        3.09991       -2.30861
H          1.29279        3.93044       -0.74400
H          2.37268        2.47447       -0.79638
S         -0.35588       -2.60387       -0.39369
O         -0.85432       -2.67161        1.00547
O          1.08322       -2.80594       -0.56136
O         -0.85572       -1.33390       -1.05209
H         -0.02086       -0.18369       -1.45134
C         -1.18174       -3.91339       -1.27987
H         -2.25838       -3.77025       -1.18909
H         -0.86967       -3.86510       -2.32318
H         -0.87834       -4.85887       -0.82969
H          4.05010        0.72093        2.35590
H          2.59261        1.64837        1.94867
H          2.03615       -0.71902        2.15440
H          1.81513       -0.18141        0.48897
H          4.00431       -1.84245        1.44785
H          2.95559       -2.08755        0.21000
H          4.66687        2.08620        0.55177
H          4.34428        0.63753       -0.14465
C          3.30897        0.91397        1.56210
C          2.57027       -0.38391        1.25151
N          3.92253        1.43146        0.33610
N          3.48862       -1.37939        0.70687
H         -3.79693       -0.13462        2.19088
H         -2.49968        0.74505        3.03714
H         -4.16170        2.28710        1.84004
H         -2.48646        2.49871        1.32452
H         -4.64723        1.61305       -0.29152
H         -3.09163        1.96926       -0.73928
H         -1.66040       -1.13799        1.49909
H         -2.32686       -0.25639        0.27404
C         -2.93844        0.52862        2.06102
C         -3.33448        1.80628        1.30757
N         -1.94458       -0.17675        1.22802
N         -3.67174        1.47014       -0.07089
