40
2msa1dma1eda_408.log	Energy: -1038013.1664931
S          0.27081       -2.20824        0.31588
O          1.51267       -2.46174        1.04351
O          0.40727       -1.67084       -1.04117
O         -0.70553       -1.33167        1.15730
H         -0.36551       -0.33578        1.32400
C         -0.67454       -3.70958        0.23807
H         -0.08936       -4.42144       -0.34479
H         -0.82734       -4.07320        1.25375
H         -1.62373       -3.49385       -0.25238
S         -0.23486        2.09459        0.62486
O          0.75556        3.16828        0.71666
O          0.07426        0.96296        1.57439
O         -0.41832        1.55994       -0.76186
H          0.90471        0.90520       -1.44179
C         -1.82755        2.71617        1.11040
H         -1.76156        3.01860        2.15576
H         -2.05886        3.57211        0.47536
H         -2.55288        1.90996        0.96136
N         -3.08938        0.03546       -0.47472
C         -3.56183        0.70137       -1.67506
C         -3.72921       -1.24388       -0.23967
H         -2.08284       -0.08235       -0.53713
H         -4.61551        0.97829       -1.55299
H         -2.98031        1.61360       -1.83181
H         -3.48202        0.07966       -2.58540
H         -4.79905       -1.09292       -0.05598
H         -3.63677       -1.94775       -1.08926
H         -3.29454       -1.70694        0.64996
H          3.78725        1.48655       -1.77216
H          2.54474        2.37070       -0.82648
H          4.08461        1.05101        0.66367
H          2.41785        0.50710        0.78762
H          4.62091       -0.95763       -0.38285
H          3.20484       -1.51650        0.27223
H          1.83497        0.88710       -2.84008
H          2.00744       -0.35321       -1.73033
C          2.92479        1.38627       -1.10862
C          3.28225        0.54338        0.11642
N          1.85195        0.66192       -1.84898
N          3.62274       -0.80562       -0.32086
