37
2msa1ma1eda_468.log	Energy: -1013351.2092027
S         -0.78409       -0.25286        0.82446
O         -1.87207       -0.23727        1.79856
O          0.54411        0.15918        1.41494
O         -1.04720        0.59310       -0.38758
H          0.10054        1.65639       -0.66474
C         -0.58246       -1.91823        0.23106
H         -0.29824       -2.53965        1.08161
H         -1.54959       -2.24359       -0.16239
H          0.19392       -1.92300       -0.53585
S          3.22356       -0.46359       -0.40193
O          3.29307        1.00442       -0.52589
O          2.42050       -1.15125       -1.40204
O          2.78119       -0.85336        1.04686
H          1.82291       -0.48237        1.24088
C          4.87958       -1.09633       -0.39818
H          5.30619       -0.87660       -1.37708
H          5.43786       -0.59765        0.39331
H          4.82928       -2.17188       -0.23068
N          0.86941        2.39315       -0.69975
H          1.77938        1.89188       -0.70622
C          0.76441        3.25995        0.49946
H          1.56836        3.99562        0.49469
H         -0.20648        3.75484        0.49711
H          0.84166        2.61299        1.37284
H          0.78255        2.92207       -1.56465
H         -5.84468        0.23689       -0.70579
H         -4.88361        0.85525       -2.04324
H         -4.64664       -1.56717       -1.96005
H         -3.10566       -0.79705       -1.59442
H         -3.55655       -1.24908        0.75599
H         -4.90762       -2.07926        0.33448
H         -4.24248        1.01253        0.81603
H         -3.16459        1.35343       -0.33868
C         -4.81371        0.38897       -1.05142
C         -4.11712       -0.97213       -1.20544
N         -4.16329        1.32940       -0.14510
N         -3.99598       -1.77873        0.00551
