32
2msa2ma_240.log	Energy: -953947.4451058
S         -2.65898       -0.92653       -0.02712
O         -3.16020        0.36700       -0.47480
O         -2.23343       -1.05120        1.36131
O         -1.51400       -1.43883       -0.99381
H         -0.66834       -0.89406       -0.86796
C         -3.87775       -2.17102       -0.38018
H         -4.75258       -1.93089        0.22479
H         -4.11878       -2.12705       -1.44185
H         -3.46944       -3.14271       -0.10487
S          1.49268        0.13270        0.45548
O          0.58501        0.02434       -0.71922
O          2.58912        1.11600        0.20539
O          2.06165       -1.19769        0.85233
H          3.67110       -1.21701        0.45167
C          0.52979        0.73061        1.81584
H          0.07190        1.67098        1.48712
H         -0.24360       -0.01094        2.02597
H          1.19820        0.86666        2.66627
N         -1.01990        2.73619       -0.24116
H         -0.36001        2.34798       -0.90828
C         -1.36237        4.11243       -0.57824
H         -1.81567        4.24486       -1.57326
H         -2.06670        4.50163        0.16325
H         -0.46313        4.73487       -0.53187
H         -1.84103        2.13705       -0.27771
N          4.48181       -0.72061       -0.01798
H          4.10229        0.25503        0.04272
C          4.60248       -1.14569       -1.43081
H          5.35924       -0.54487       -1.93444
H          4.86684       -2.20184       -1.47386
H          3.63324       -0.99091       -1.90513
H          5.34574       -0.82146        0.50827
