26
2msa2a_24.log	Energy: -904648.6835017
S         -2.20798       -0.51213       -0.07766
O         -3.32335       -1.23762       -0.66568
O         -2.48344        0.84865        0.41942
O         -1.00474       -0.44101       -1.04149
H         -0.62347        1.23017       -1.39028
C         -1.58983       -1.46500        1.30213
H         -2.38579       -1.50608        2.04632
H         -1.35098       -2.46888        0.94919
H         -0.70303       -0.97358        1.70653
S          2.10402       -0.28887        0.01361
O          1.58775        0.15152        1.31039
O          2.33926        0.76613       -0.98020
O          1.20567       -1.41350       -0.58521
H          0.22050       -1.05178       -0.78522
C          3.61795       -1.18041        0.25603
H          3.43186       -1.98477        0.96697
H          3.94613       -1.57046       -0.70690
H          4.34205       -0.46929        0.65458
N         -0.12337        2.14693       -1.36921
H         -0.19831        2.51012       -0.35416
H         -0.51715        2.79595       -2.04280
H          0.86517        1.94450       -1.55615
N         -0.30645        2.60792        1.31020
H          0.41217        1.97139        1.65310
H         -1.20586        2.13472        1.41437
H         -0.29906        3.44917        1.87548
