35
2msa1ma1dma_90.log	Energy: -978628.5968817
S         -1.41814       -1.64400        0.05188
O         -0.56956       -2.42944       -0.85248
O         -2.17125       -0.54191       -0.59894
O         -0.66434       -1.14891        1.26074
C         -2.65344       -2.74950        0.71268
H         -2.13981       -3.56527        1.22150
H         -3.28095       -2.19254        1.40855
H         -3.24347       -3.12727       -0.12266
S          2.30226       -0.22831       -0.25948
O          3.59407        0.39448       -0.04242
O          1.19063        0.61327       -0.71286
O          1.88523       -0.93336        1.09084
H          0.87975       -1.08663        1.13285
C          2.47111       -1.57968       -1.39869
H          2.78292       -1.15533       -2.35385
H          3.23365       -2.25380       -1.00844
H          1.49717       -2.06876       -1.47497
N         -0.47440        1.84432        1.80336
H         -1.15091        2.04612        2.53342
C          0.83645        2.40603        2.15677
H          1.25578        1.98007        3.07516
H          1.53731        2.21465        1.34264
H          0.74492        3.48827        2.28336
H         -0.42902        0.82423        1.73452
N         -1.36967        2.04712       -0.79122
C         -0.57097        2.83144       -1.75096
C         -2.78493        2.45261       -0.70397
H         -1.35271        1.03059       -0.99952
H         -0.59186        3.88301       -1.45713
H          0.44955        2.45296       -1.73442
H         -0.99636        2.72372       -2.75086
H         -2.84576        3.48558       -0.35522
H         -3.25476        2.36346       -1.68495
H         -3.28783        1.78403       -0.00589
H         -0.95257        2.09116        0.19856
