38
2msa1ma1tma_86.log	Energy: -1003278.1353203
S         -1.92298        1.71314       -0.20684
O         -2.97878        0.91209        0.44391
O         -1.74864        1.49137       -1.63553
O         -0.58048        1.55000        0.56612
H         -0.29424        0.52076        0.59393
C         -2.26652        3.42551        0.10252
H         -3.20309        3.65717       -0.40531
H         -2.35886        3.57264        1.17788
H         -1.44760        4.01452       -0.30961
S          0.48435       -1.72425       -0.44655
O          1.62402       -2.50699        0.01507
O         -0.10408       -0.84913        0.65133
O         -0.63413       -2.52614       -1.03476
H         -2.02089       -2.13533       -0.37068
C          1.03869       -0.60005       -1.70701
H          1.80367        0.04017       -1.25059
H          1.45576       -1.20188       -2.51540
H          0.18448       -0.01671       -2.05599
N         -2.88297       -1.87506        0.20326
H         -2.94563       -0.83786        0.22689
C         -2.73045       -2.40806        1.57812
H         -3.59451       -2.12814        2.18094
H         -2.63101       -3.49225        1.53097
H         -1.81977       -1.97542        1.99096
H         -3.71244       -2.24057       -0.25871
N          3.33568        0.79065        0.24000
C          4.31125       -0.26155        0.00231
H          3.83019       -1.23650        0.11990
H          4.69465       -0.18509       -1.02043
H          5.17078       -0.20116        0.69749
C          3.90016        2.10657        0.00971
H          4.28173        2.17591       -1.01382
H          3.12575        2.86917        0.13855
H          4.73207        2.33875        0.70340
C          2.76957        0.68531        1.57534
H          1.99268        1.44463        1.70704
H          2.31136       -0.29795        1.70542
H          3.53455        0.82782        2.36353
