26
2msa2a_49.log	Energy: -904640.7734186
S         -2.20745       -0.47681       -0.04920
O         -1.35538        0.06357        1.05123
O         -1.69671       -1.73600       -0.60698
O         -2.48053        0.57617       -1.08057
C         -3.80178       -0.82256        0.67739
H         -4.19527        0.09868        1.10709
H         -4.45904       -1.19215       -0.11005
H         -3.66375       -1.58105        1.44847
S          2.31651       -0.33256        0.01885
O          1.81441        0.13048       -1.27682
O          2.60762        0.63678        1.05477
O          3.70147       -1.11299       -0.30397
H          3.79363       -1.18188       -1.26503
C          1.29444       -1.61891        0.66655
H          0.36983       -1.13776        1.00566
H          1.06644       -2.32316       -0.13301
H          1.83788       -2.08413        1.48921
N         -0.30748        2.07989       -1.41896
H         -0.35932        2.80571       -2.12636
H          0.46282        1.43074       -1.61764
H         -0.13124        2.47793       -0.44403
H         -1.20892        1.51623       -1.37196
N          0.11347        2.60111        1.26209
H          1.05654        2.30674        1.50661
H         -0.51145        1.82581        1.50071
H         -0.12801        3.40616        1.82909
