35
2msa1ma1dma_192.log	Energy: -978619.9540369
S          1.47621       -0.65319       -0.55894
O          0.57952       -0.58596       -1.70117
O          1.57514        0.56049        0.27843
O          2.92157       -1.02225       -1.03486
H          3.65949       -0.41343       -0.54296
C          1.01327       -2.01789        0.47249
H          0.02475       -1.77077        0.87635
H          0.98920       -2.91375       -0.14863
H          1.75480       -2.11329        1.26620
S         -2.85602       -0.61291        0.36368
O         -4.02778       -0.95687        1.16439
O         -1.57611       -0.49556        1.11985
O         -3.04285        0.61700       -0.49092
H         -1.76678        1.44714       -0.35013
C         -2.60803       -1.93695       -0.81554
H         -2.46716       -2.86598       -0.26057
H         -3.49970       -2.00492       -1.43951
H         -1.72886       -1.70280       -1.41896
N          4.59635        0.43659        0.21499
H          5.50351        0.54449       -0.22894
C          4.73141       -0.08068        1.58608
H          5.35464        0.55577        2.22170
H          3.73510       -0.15168        2.02679
H          5.16846       -1.08038        1.54729
H          4.14478        1.34772        0.22573
N         -0.89128        2.04002       -0.13875
C         -1.22356        2.93490        0.98477
C         -0.43072        2.71477       -1.36425
H         -0.17045        1.37272        0.16900
H         -2.02917        3.60454        0.68000
H         -1.55843        2.31503        1.81675
H         -0.34308        3.51369        1.27245
H         -1.22419        3.36678       -1.73319
H          0.46526        3.30104       -1.14954
H         -0.20099        1.94984       -2.10642
