30
2msa1eda_99.log	Energy: -953195.8551084
S          1.78705       -1.45461       -0.04744
O          3.02539       -0.71801       -0.37337
O          0.94646       -1.79995       -1.20664
O          0.98798       -0.73381        1.01567
C          2.29028       -2.98363        0.72447
H          2.88221       -2.74479        1.60805
H          1.39592       -3.54417        0.99743
H          2.88571       -3.54053        0.00055
S         -3.09875        0.12023       -0.15383
O         -2.33834        1.36390       -0.15457
O         -4.17640       -0.05657       -1.10907
O         -3.74216       -0.02042        1.33055
H         -4.69799       -0.13783        1.23133
C         -1.98043       -1.24889       -0.17577
H         -1.26974       -1.14392        0.64759
H         -2.56535       -2.16490       -0.09698
H         -1.42406       -1.22146       -1.11538
H          1.00015        3.69386        0.31090
H          1.04995        2.67843        1.77750
H          3.36781        3.23608        0.78568
H          3.03953        1.50764        0.99055
H          3.55250        2.81087       -1.44880
H          3.24653        1.20229       -1.15815
H         -0.53102        1.85286       -0.01546
H          0.85787        1.64367       -0.94780
C          1.28091        2.71642        0.71126
C          2.75611        2.40238        0.42726
N          0.48076        1.68620        0.01063
N          2.92633        2.15604       -1.00170
H          0.64303        0.72751        0.44707
