34
2msa1a1eda_292.log	Energy: -988694.2501069
S          0.31097        1.70532       -0.34659
O          0.03386        0.61875       -1.32139
O          1.65840        2.30419       -0.54126
O          0.11732        1.25380        1.06798
H          1.75118        1.26378        1.94228
C         -0.89967        2.97129       -0.64540
H         -0.75876        3.33413       -1.66375
H         -1.88070        2.50649       -0.52841
H         -0.74618        3.77181        0.07838
S         -2.87140       -0.84019        0.05020
O         -3.87353       -1.87421       -0.11193
O         -3.16759        0.53429       -0.33687
O         -1.56753       -1.32922       -0.71831
H         -0.98571       -0.54610       -0.96877
C         -2.32860       -0.82673        1.74721
H         -3.17926       -0.51133        2.35307
H         -2.02336       -1.83876        2.01412
H         -1.50331       -0.11585        1.82499
N          2.75981        1.21408        1.70743
H          3.34533        1.66713        2.40185
H          2.77612        1.71578        0.79827
H          3.00707        0.16692        1.56812
H          1.73742       -2.86050        0.35401
H          1.08730       -1.23036        0.59558
H          1.62474       -1.61638       -1.77807
H          2.61038       -0.32578       -1.12002
H          3.52928       -3.05747       -1.64311
H          4.16485       -1.65178       -2.17021
H          2.95857       -2.00571        2.14318
H          3.94108       -1.79080        0.84525
C          1.98830       -1.79140        0.33009
C          2.43785       -1.40541       -1.07452
N          3.07310       -1.47606        1.28395
N          3.69797       -2.09007       -1.38489
