42
2msa2eda_335.log	Energy: -1072753.1520351
S          0.38747       -2.27646       -0.02711
O          0.66802       -1.86071        1.36030
O          1.46454       -2.99547       -0.70398
O         -0.06746       -1.07074       -0.85349
C         -1.04859       -3.33746        0.02578
H         -0.77663       -4.22933        0.59104
H         -1.85561       -2.79849        0.52398
H         -1.32217       -3.59931       -0.99670
S         -2.89283        0.55711       -0.05585
O         -2.68287        1.94949       -0.45464
O         -2.34747        0.16545        1.24647
O         -2.40171       -0.42256       -1.16124
H         -1.37305       -0.72651       -1.02472
C         -4.63947        0.23160       -0.08037
H         -5.09922        0.89786        0.65004
H         -5.01303        0.44128       -1.08241
H         -4.80129       -0.81178        0.18826
H         -0.84905        2.43522        1.36113
H          0.68009        2.69554        2.23387
H          0.52497        4.13332        0.20375
H          1.88434        2.99640        0.08539
H         -0.72341        2.53008       -1.19723
H          0.71965        2.81315       -1.94843
H         -0.02120        0.27695        1.76497
H          0.34433        0.57345        0.20632
C          0.23603        2.32603        1.30642
C          0.79018        3.07108        0.09527
N          0.54292        0.88752        1.17079
N          0.28668        2.43707       -1.11481
H          1.57210        0.68943        1.33946
H          4.77480       -0.57854        0.27135
H          3.18717       -1.35105        0.43126
H          3.52491       -0.50969       -1.84024
H          2.17400        0.31574       -1.08009
H          4.85111        1.45466       -1.42949
H          3.43597        2.00744       -2.01191
H          3.63801        0.13537        2.27708
H          3.77246        1.40783        1.24147
C          3.68973       -0.39167        0.28810
C          3.26127        0.20212       -1.04682
N          3.31625        0.51056        1.39068
N          3.85948        1.53295       -1.22215
