32
2msa2ma_130.log	Energy: -953959.7111526
S         -2.90018        0.12537        0.26857
O         -4.33403        0.27020        0.37628
O         -2.15106        1.24316       -0.33480
O         -2.61349       -1.19341       -0.53343
H         -1.62295       -1.38907       -0.66256
C         -2.18788       -0.18004        1.86832
H         -2.38711        0.70298        2.47699
H         -2.67969       -1.05654        2.29026
H         -1.11315       -0.33750        1.74052
S          1.07561       -1.10728       -0.44126
O         -0.15860       -1.84028       -0.83865
O          0.88888       -0.32661        0.80758
O          1.60409       -0.25203       -1.54878
H          0.81023        1.16082       -1.57347
C          2.31549       -2.34428       -0.14668
H          1.92414       -3.03545        0.60038
H          2.50313       -2.85897       -1.08884
H          3.20775       -1.83555        0.22797
N          0.24419        2.02781       -1.34341
H          0.11642        2.59461       -2.17840
C          0.90623        2.77259       -0.24611
H          0.26511        3.59213        0.07794
H          1.06305        2.06427        0.56780
H          1.86611        3.15330       -0.59467
H         -0.68886        1.68859       -1.02492
N          3.85845        0.12678        1.54214
H          2.85536        0.09564        1.70651
C          4.18415        1.14556        0.55045
H          3.93326        2.17751        0.84740
H          5.25535        1.11356        0.33033
H          3.65029        0.91751       -0.37734
H          4.32204        0.30940        2.42454
