26
2msa2a_12.log	Energy: -904651.7229693
S          2.01849       -0.43645       -0.03541
O          2.63056        0.82120       -0.49164
O          1.02508       -0.99708       -1.01284
O          1.41572       -0.33786        1.32605
C          3.30271       -1.66372        0.06565
H          4.04788       -1.30711        0.77679
H          2.85881       -2.59913        0.40560
H          3.73920       -1.77852       -0.92652
S         -2.29787       -0.36575       -0.07392
O         -3.55513       -0.58769       -0.75482
O         -2.30198        0.58657        1.04808
O         -1.22331        0.10962       -1.12945
H         -0.30040       -0.35880       -1.06595
C         -1.64342       -1.90539        0.53488
H         -2.36703       -2.27547        1.26214
H         -1.54679       -2.59745       -0.30164
H         -0.67616       -1.71238        1.00316
N          0.01126        2.02795        1.54311
H          0.18576        2.49374        0.59327
H         -0.94030        1.61857        1.51507
H          0.67102        1.22459        1.62611
H          0.11649        2.68003        2.31357
N          0.44880        2.80054       -1.06854
H          1.32402        2.29159       -1.21062
H          0.53415        3.72092       -1.48555
H         -0.28012        2.29174       -1.56441
