34
2msa1a1eda_291.log	Energy: -988692.2603120
S          0.49989        2.07000       -0.09668
O         -0.70006        2.89687       -0.11736
O          0.82873        1.28448       -1.28230
O          0.35278        1.10983        1.15205
H          0.80457        0.18683        1.02307
C          1.89867        3.07268        0.33609
H          2.02625        3.80381       -0.46369
H          1.67744        3.56992        1.28048
H          2.76672        2.40734        0.41164
S          0.76580       -2.19304        0.04326
O          0.98837       -3.55973        0.49659
O          1.38448       -1.16000        0.94888
O         -0.67280       -1.84922       -0.21328
H         -1.75903       -1.33616        0.72931
C          1.55841       -1.97577       -1.53758
H          2.62160       -2.18185       -1.40539
H          1.11691       -2.68601       -2.23710
H          1.39035       -0.94495       -1.85386
N          3.83991        0.44540        0.03242
H          3.20930       -0.23404        0.45543
H          4.79312        0.14929        0.21040
H          3.68299        0.41870       -0.96993
H         -3.70234        0.85726        1.41287
H         -1.92878        1.01976        1.24403
H         -3.10928        1.69211       -0.87118
H         -2.04639        0.30785       -1.10380
H         -4.95808        0.25117       -1.07838
H         -3.90628       -0.61071       -1.98664
H         -2.68645       -1.17849        2.16115
H         -3.43662       -1.42717        0.67597
C         -2.81432        0.49787        0.88491
C         -2.97374        0.63513       -0.62519
N         -2.66539       -0.95719        1.16904
N         -4.07067       -0.23868       -1.05942
