44
2msa2tma_42.log	Energy: -1052601.9977675
S          0.48696        2.21734       -0.27663
O         -0.96717        2.43119       -0.31670
O          1.02532        1.53409       -1.49415
O          0.94102        1.53407        0.96721
C          1.25802        3.82676       -0.28570
H          0.90436        4.37683        0.58669
H          2.33920        3.69278       -0.24693
H          0.96581        4.33460       -1.20487
S          2.19127       -1.60485       -0.44185
O          2.81410       -2.86113       -0.80247
O          1.02623       -1.64967        0.45101
O          1.80862       -0.86669       -1.77431
H          1.44361        0.07614       -1.62041
C          3.39162       -0.52326        0.30430
H          3.76324       -1.02621        1.19822
H          4.19852       -0.36954       -0.41216
H          2.88437        0.40931        0.56271
N         -2.95988       -0.74351       -0.93060
C         -3.82863       -1.88034       -1.18571
H         -3.34841       -2.80347       -0.84313
H         -4.77280       -1.75971       -0.64508
H         -4.05941       -2.00014       -2.26080
C         -3.59772        0.50460       -1.33158
H         -4.53157        0.63923       -0.77519
H         -2.92832        1.34163       -1.11573
H         -3.83743        0.51902       -2.41114
C         -1.67965       -0.90755       -1.60991
H         -1.05865       -0.02641       -1.43853
H         -1.15471       -1.78604       -1.22270
H         -1.80008       -1.02920       -2.70159
N         -0.89511       -0.41445        2.03700
C         -1.53778       -1.74949        1.91377
H         -2.22695       -1.70023        1.06861
H         -0.76232       -2.49271        1.73657
H         -2.07706       -1.95679        2.84086
C          0.06070       -0.35992        3.17116
H          0.80398       -1.14335        3.02512
H          0.54443        0.61566        3.15599
H         -0.48789       -0.51564        4.10241
C         -1.91471        0.66515        2.11562
H         -1.40501        1.62610        2.10192
H         -2.55858        0.58116        1.24028
H         -2.48555        0.52691        3.03677
H         -0.31555       -0.25453        1.19678
