42
2msa2eda_284.log	Energy: -1072757.8405913
S         -3.02825       -0.27242       -0.67363
O         -2.06550       -1.12915       -1.41213
O         -2.58153        1.11776       -0.48267
O         -3.40827       -0.90109        0.64282
H         -2.33141       -0.33062        1.69788
C         -4.51974       -0.24926       -1.64721
H         -4.86343       -1.27572       -1.77415
H         -5.26204        0.34738       -1.11702
H         -4.27961        0.20021       -2.61094
S          1.15427        1.99421        0.07896
O          2.46096        2.57741        0.40627
O          0.57985        1.22685        1.26046
O          1.13429        1.12895       -1.11705
H         -0.42214       -1.22939       -0.69054
C         -0.00435        3.31540       -0.21469
H         -0.03574        3.95096        0.67103
H          0.35183        3.87988       -1.07705
H         -0.97487        2.85907       -0.42005
H          0.36696       -0.89019        2.85283
H         -1.05866       -1.89012        3.23239
H          0.20508       -2.94499        1.46022
H         -1.38109       -2.43515        0.84762
H          0.51936       -0.38113        0.37811
H          1.13988       -1.82984       -0.18405
H         -1.73825        0.35378        3.14099
H         -0.89957        0.65036        1.72746
C         -0.59231       -1.25371        2.47734
C         -0.41308       -2.07958        1.20755
N         -1.46287       -0.06774        2.25687
N          0.24522       -1.34228        0.09993
H          4.64812       -2.64955       -1.12837
H          3.22897       -2.51151       -2.18277
H          4.51721       -0.36845       -2.00423
H          2.83959       -0.20091       -1.48559
H          5.16884       -0.13755        0.22969
H          3.78548        0.74288        0.28233
H          2.81625       -3.58740        0.01786
H          3.14473       -2.12363        0.70243
C          3.65759       -2.18134       -1.23116
C          3.79771       -0.65822       -1.22588
N          2.76637       -2.58407       -0.12892
N          4.16340       -0.18771        0.11087
