31
2msa1tma_22.log	Energy: -943119.6806201
S          1.54619        1.62641        0.08485
O          2.31295        2.65150        0.78724
O          0.50168        0.94032        0.89121
O          2.41138        0.58795       -0.59388
H          1.99588       -0.79285       -0.18781
C          0.68228        2.43246       -1.25845
H          0.08061        3.23748       -0.83356
H          1.42357        2.83996       -1.94648
H          0.04527        1.69761       -1.75274
S         -2.53125       -0.22208       -0.01754
O         -1.99627        0.07301       -1.34100
O         -2.03346       -1.36970        0.71527
O         -4.13615       -0.42872       -0.21067
H         -4.32463       -0.40531       -1.15959
C         -2.50907        1.21068        1.02025
H         -1.44941        1.40522        1.22113
H         -2.97772        2.03228        0.47897
H         -3.05668        0.97120        1.93188
N          1.78674       -1.84666       -0.02580
C          0.81648       -2.23747       -1.07364
H         -0.08197       -1.63251       -0.96108
H          1.26464       -2.05066       -2.05025
H          0.56941       -3.29670       -0.96542
C          3.08272       -2.53883       -0.18467
H          3.48535       -2.31410       -1.17291
H          3.77408       -2.16948        0.57336
H          2.94182       -3.61686       -0.07073
C          1.22670       -2.01986        1.33595
H          1.93321       -1.60780        2.05695
H          0.28867       -1.47139        1.39745
H          1.06625       -3.08539        1.52231
