25
2msa1ma_14.log	Energy: -893810.5209457
S          1.96064       -0.59250       -0.02884
O          3.25543        0.04357       -0.25557
O          1.00728       -0.38859       -1.17170
O          1.30036       -0.17139        1.25357
H          0.92439        1.44121        1.04548
C          2.20594       -2.35148        0.11139
H          2.65983       -2.69819       -0.81719
H          2.87067       -2.53371        0.95595
H          1.23816       -2.82904        0.26765
S         -2.34780       -0.16121       -0.09924
O         -3.73803       -0.40509       -0.40691
O         -1.91180        1.24125        0.03145
O         -1.47611       -0.88543       -1.18372
H         -0.47654       -0.65636       -1.14491
C         -1.90979       -0.99701        1.41022
H         -2.49691       -0.54667        2.21173
H         -2.16947       -2.04937        1.29358
H         -0.83787       -0.86328        1.58180
N          0.49649        2.33778        0.68533
H         -0.46902        2.05181        0.41893
C          1.24626        2.84976       -0.49133
H          0.77659        3.76666       -0.84635
H          2.28272        3.02751       -0.20786
H          1.21445        2.08183       -1.26352
H          0.45077        3.02039        1.43814
