35
2msa1a1tma_07.log	Energy: -978635.1711478
S          2.33200       -0.39641       -0.20926
O          3.35465        0.62875       -0.44265
O          1.15142        0.12041        0.55694
O          2.81981       -1.65714        0.43018
H          1.49681       -2.23685        1.30107
C          1.69108       -0.88850       -1.80366
H          1.30673       -0.00330       -2.31087
H          2.51106       -1.33327       -2.36846
H          0.87826       -1.59953       -1.64821
S         -1.95770       -0.88226       -0.22210
O         -1.89958       -0.26999        1.13134
O         -1.27669       -2.21218       -0.27052
O         -1.51336        0.04697       -1.28421
H         -0.33921        1.26497        0.11968
C         -3.67680       -1.23918       -0.55455
H         -4.23204       -0.30083       -0.52983
H         -3.74450       -1.69857       -1.54088
H         -4.04214       -1.92198        0.21276
N          0.52856       -2.27681        1.72035
H          0.43739       -2.97007        2.45528
H         -0.17703       -2.41702        0.94866
H          0.34154       -1.33023        2.05960
N         -0.38677        2.29646        0.23180
C          0.57036        2.85239       -0.75768
H          1.56083        2.44019       -0.55676
H          0.24119        2.55074       -1.75257
H          0.57590        3.94148       -0.67367
C         -1.77760        2.74161       -0.02072
H         -2.04839        2.46568       -1.03817
H         -2.43002        2.21584        0.67608
H         -1.83445        3.82275        0.12561
C          0.03341        2.57915        1.62636
H         -0.65755        2.06520        2.29490
H          1.03733        2.18051        1.76140
H          0.00434        3.65815        1.79410
