29
2msa1a1ma_18.log	Energy: -929314.4858940
S          2.43439       -0.40464       -0.22779
O          3.57818       -1.24679        0.10415
O          2.69775        0.96208       -0.70548
O          1.43973       -0.31531        0.94324
H          0.72239        1.18963        0.79015
C          1.50489       -1.22738       -1.51688
H          2.12899       -1.24002       -2.41133
H          1.28978       -2.24914       -1.20034
H          0.57886       -0.67726       -1.69589
S         -2.29032       -0.12396       -0.24612
O         -1.55228        0.72656       -1.21333
O         -2.07175        0.31237        1.16475
O         -2.02534       -1.57961       -0.41718
H         -0.99092       -2.10653        0.85870
C         -4.02215        0.10379       -0.60018
H         -4.26061        1.15864       -0.46347
H         -4.19686       -0.19899       -1.63268
H         -4.59881       -0.51574        0.08658
N         -0.40370       -1.96964        1.71478
H         -0.14871       -2.84017        2.17040
H         -0.97105       -1.37607        2.32198
H          0.45612       -1.39319        1.41765
N          0.13803        2.03299        0.55357
H         -0.32842        1.77723       -0.33609
C          0.94123        3.27010        0.47852
H          0.30702        4.10117        0.16876
H          1.37449        3.47414        1.45751
H          1.74178        3.09861       -0.23978
H         -0.62365        2.05838        1.23413
