38
2msa1ma1tma_123.log	Energy: -1003273.2177922
S          1.70294       -1.61847        0.09538
O          2.67779       -1.18651       -0.92659
O          0.88886       -2.79167       -0.25388
O          0.83868       -0.45978        0.53913
C          2.64709       -2.06114        1.54863
H          3.29104       -2.90070        1.28485
H          3.24665       -1.20189        1.85163
H          1.95064       -2.34635        2.33754
S         -2.64125       -0.28996       -0.07303
O         -2.44821        0.40321        1.19079
O         -2.10512        0.27344       -1.29903
O         -4.25474       -0.40569       -0.28652
H         -4.68090        0.01652        0.47268
C         -2.20138       -1.99887        0.03755
H         -1.10932       -2.06925        0.07158
H         -2.65596       -2.40626        0.94026
H         -2.58382       -2.49258       -0.85591
N          1.25098        2.07505        2.07633
H          1.28124        1.08963        1.81607
C         -0.02159        2.36180        2.74201
H         -0.14842        1.85819        3.71089
H         -0.12165        3.44025        2.90322
H         -0.84054        2.03378        2.09697
H          2.02785        2.25439        2.70366
N          1.06481        1.55097       -1.25382
C          0.83987        0.90136       -2.57054
H          1.54392        0.07323       -2.65986
H         -0.18339        0.52780       -2.59769
H          1.00090        1.64024       -3.35947
C          0.10739        2.65460       -0.99757
H         -0.90399        2.25568       -1.06878
H          0.30246        3.03430        0.00647
H          0.26293        3.43568       -1.74640
C          2.47117        1.99929       -1.09929
H          2.57025        2.44536       -0.10874
H          3.11295        1.12199       -1.19011
H          2.69575        2.73314       -1.87752
H          0.91028        0.80323       -0.52245
