42
2msa2eda_59.log	Energy: -1072770.0999112
S         -2.71003       -0.45158        0.01451
O         -2.93767       -1.90195        0.08307
O         -1.69127       -0.07410       -1.02688
O         -2.37210        0.17321        1.32523
H         -0.89526        0.99127        1.13587
C         -4.22663        0.32290       -0.51318
H         -4.49373       -0.07738       -1.49149
H         -4.99528        0.08586        0.22269
H         -4.05250        1.39932       -0.55765
S          2.88269        0.13181       -0.10715
O          2.70293        0.32221        1.34909
O          1.89087        0.91005       -0.90981
O          2.90831       -1.29434       -0.53768
H          1.32092       -1.63606       -1.16463
C          4.49065        0.78751       -0.51548
H          4.51045        1.84257       -0.24178
H          5.23454        0.22902        0.05309
H          4.64991        0.66221       -1.58643
H          0.43415        3.24445       -1.01462
H         -0.48427        4.57530       -0.29242
H          0.82525        3.38941        1.38657
H         -0.91878        3.22744        1.72817
H          0.49499        1.16901        0.16383
H          0.65968        1.15398        1.76320
H         -1.97163        3.48330       -1.69395
H         -1.62030        1.99200       -1.12101
C         -0.42200        3.48469       -0.36522
C         -0.11779        2.96555        1.03372
N         -1.69606        2.97609       -0.86075
N          0.02280        1.48486        1.03485
H         -1.11454       -3.19380       -0.54930
H          0.39619       -4.01140       -1.05661
H          0.19779       -3.83909        1.43483
H          1.63556       -3.02781        0.78840
H         -0.74842       -1.67822        1.80314
H          0.86240       -1.38227        2.08385
H          0.23206       -2.09199       -2.36600
H         -0.30809       -1.13453       -1.12801
C         -0.02414       -3.13006       -0.56629
C          0.54458       -2.98053        0.84262
N          0.33566       -1.92410       -1.36834
N          0.18186       -1.68505        1.39729
