32
2msa2ma_118.log	Energy: -953959.7399239
S         -2.18966       -0.53993       -0.31965
O         -1.25014       -1.70065       -0.27098
O         -1.58868        0.66427       -0.92367
O         -2.78431       -0.27160        1.02420
H         -1.62386        0.39038        1.96269
C         -3.54426       -1.05866       -1.35140
H         -3.14653       -1.26429       -2.34531
H         -3.97982       -1.95716       -0.91477
H         -4.27334       -0.24918       -1.38471
S          2.14413       -0.90071        0.32088
O          2.72122       -1.86448        1.24043
O          1.41979        0.23384        0.93364
O          1.22494       -1.59695       -0.73896
H          0.22295       -1.60024       -0.51265
C          3.38391       -0.22723       -0.74720
H          4.10684        0.28377       -0.11010
H          3.85458       -1.05729       -1.27455
H          2.87183        0.46292       -1.42972
N         -0.78695        0.93309        2.31918
H         -0.72027        0.85365        3.33091
C         -0.89717        2.33999        1.86215
H          0.01253        2.88039        2.12306
H         -1.02467        2.31337        0.77931
H         -1.76692        2.80372        2.32703
H          0.06028        0.50201        1.88771
N          1.11623        1.71755       -2.06651
H          0.92871        1.99426       -3.02425
C          1.20458        2.89270       -1.20546
H          0.28146        3.49142       -1.15546
H          1.45375        2.56325       -0.19203
H          2.01204        3.54644       -1.55010
H          0.32898        1.14222       -1.77120
