42
2msa2eda_268.log	Energy: -1072756.4992459
S         -0.32098        0.58877        2.03812
O          0.50304       -0.60127        2.29973
O         -1.74307        0.33277        1.75537
O          0.28013        1.45017        0.93912
C         -0.24641        1.61034        3.49975
H         -0.69171        1.04821        4.32100
H          0.80049        1.83124        3.70911
H         -0.80599        2.52646        3.31094
S          2.80025       -0.16699       -0.79869
O          3.99399       -0.05511       -1.61110
O          1.51450       -0.41689       -1.45660
O          2.68578        1.15643        0.06031
H          1.75732        1.26030        0.45268
C          3.03599       -1.42559        0.43574
H          3.07119       -2.38495       -0.08239
H          3.98329       -1.22670        0.93704
H          2.19996       -1.37778        1.13854
H         -3.08666        0.88381       -2.00753
H         -2.80214        0.88865       -0.24356
H         -3.36528        3.19150       -1.03885
H         -1.72190        3.09494       -0.39346
H         -2.44186        3.29332       -3.22090
H         -1.30602        4.12199       -2.38300
H         -1.08076       -0.35587       -1.54980
H         -0.65816        1.16273       -2.22343
C         -2.44131        1.25622       -1.20583
C         -2.36452        2.77811       -1.22090
N         -1.08654        0.70757       -1.41346
N         -1.75721        3.22061       -2.47654
H         -0.48850        0.92792       -0.59409
H         -0.31685       -3.58898       -0.33748
H         -0.13326       -1.93612        0.26852
H         -2.00295       -3.03027        1.38599
H         -2.57013       -1.67466        0.42355
H         -2.81857       -4.50408       -0.32104
H         -4.00622       -3.39843       -0.15765
H         -0.05113       -2.10611       -2.17674
H         -1.64094       -2.58240       -2.16160
C         -0.78209       -2.59102       -0.31925
C         -2.14312       -2.67944        0.35458
N         -0.93131       -2.04054       -1.67303
N         -3.04175       -3.52106       -0.44352
