37
2msa1ma1eda_330.log	Energy: -1013356.5192444
S          2.52956       -0.57186        0.16195
O          3.80845       -0.81042       -0.49185
O          1.36226       -0.50753       -0.80867
O          2.48028        0.63605        1.03360
H          1.27182        1.71664        0.79137
C          2.17308       -1.96318        1.22187
H          2.19963       -2.86889        0.61451
H          2.94985       -1.99664        1.98616
H          1.18571       -1.82648        1.66630
S         -1.60783       -1.78822       -0.14426
O         -2.23809       -0.57634       -0.68716
O         -1.27158       -1.74616        1.27705
O         -0.38147       -2.20088       -1.00788
H          0.41551       -1.48268       -0.93442
C         -2.68398       -3.16596       -0.45736
H         -3.61257       -2.97464        0.08102
H         -2.86267       -3.22722       -1.53034
H         -2.20042       -4.06904       -0.08605
N         -1.92809        1.61919        1.42723
H         -2.12345        0.88277        0.74892
C         -2.92088        2.69002        1.29763
H         -3.95389        2.34769        1.43482
H         -2.71912        3.47271        2.03554
H         -2.82243        3.12064        0.29783
H         -1.97832        1.17746        2.34047
H          0.15243        4.19185       -0.45241
H          1.80953        3.54989       -0.62728
H          0.53278        3.02467       -2.61515
H          0.89016        1.52581       -1.75540
H         -1.60384        2.39495       -2.50987
H         -1.32089        1.18415       -1.45401
H          0.85350        3.12566        1.54109
H         -0.39535        2.17698        0.94042
C          0.75404        3.28185       -0.52436
C          0.29764        2.44620       -1.71546
N          0.60427        2.53275        0.75141
N         -1.13531        2.16570       -1.64312
