37
2msa1ma1eda_300.log	Energy: -1013358.7686775
S         -2.40805       -0.59817       -0.31087
O         -2.06336        0.47024       -1.28771
O         -2.70995       -0.09204        1.03645
O         -1.35577       -1.67444       -0.29438
C         -3.86823       -1.39663       -0.94441
H         -4.65534       -0.64500       -1.00645
H         -3.64104       -1.80184       -1.93021
H         -4.14663       -2.18960       -0.25038
S          1.91720       -1.90674        0.30122
O          3.05457       -2.19851        1.14631
O          2.01039       -0.74123       -0.59596
O          0.65219       -1.74935        1.22065
H         -0.21466       -1.67744        0.66390
C          1.51835       -3.31567       -0.70913
H          2.33283       -3.44653       -1.42212
H          1.43108       -4.18282       -0.05465
H          0.57617       -3.10974       -1.21989
N          2.25062        3.30296       -1.39287
H          2.34791        3.18765       -2.39718
C          3.39298        2.69116       -0.69548
H          4.36665        3.07230       -1.02429
H          3.29592        2.87801        0.37709
H          3.37078        1.60836       -0.84546
H          2.21729        4.30249       -1.21934
H         -0.31827        0.88286        1.57559
H          1.17227        1.84429        1.55602
H         -0.66075        3.18871        2.45271
H         -0.14270        3.87901        0.92393
H         -2.07849        3.00850       -0.11786
H         -2.49421        2.13878        1.19063
H          0.90846        0.62625       -0.46124
H         -0.59113        1.27138       -0.77115
C          0.17029        1.75085        1.12703
C         -0.65448        3.01701        1.37070
N          0.32932        1.47431       -0.32493
N         -2.02496        2.99238        0.89477
H          0.83447        2.25768       -0.79922
