37
2msa1ma1eda_314.log	Energy: -1013356.8809785
S         -2.59194        0.00714       -0.31432
O         -2.40560        1.45411       -0.60636
O         -2.74534       -0.33146        1.10235
O         -1.49832       -0.78806       -0.99219
C         -4.08865       -0.47296       -1.15400
H         -4.90712        0.11333       -0.73570
H         -3.96860       -0.26781       -2.21753
H         -4.24892       -1.53670       -0.97803
S          1.64650       -1.82401       -0.13270
O          2.43726       -1.79980        1.08480
O          1.70075       -0.64585       -1.01243
O          0.16478       -2.15819        0.21835
H         -0.55205       -1.56510       -0.27400
C          2.14224       -3.23174       -1.10107
H          3.19355       -3.09790       -1.35747
H          2.00515       -4.12549       -0.49254
H          1.52349       -3.26877       -1.99758
N          0.07991        0.22711        2.33087
H         -0.81903       -0.17786        2.07806
C         -0.04418        0.99855        3.56353
H         -0.34785        0.41103        4.44216
H          0.91191        1.48044        3.79577
H         -0.78821        1.78795        3.41859
H          0.74136       -0.53502        2.44160
H          0.40265        3.40843        0.25641
H          0.73307        1.80465        0.98923
H          2.86194        3.13625        0.66567
H          2.84678        1.64642       -0.28583
H          2.45060        4.34941       -1.33687
H          3.43756        3.16654       -1.88444
H         -0.77195        1.74581       -0.95621
H          0.56859        2.25939       -1.89728
C          0.90640        2.44743        0.11675
C          2.38591        2.63362       -0.18596
N          0.27077        1.77570       -1.04538
N          2.53625        3.34592       -1.45898
H          0.60703        0.79846       -1.09895
