35
2msa1ma1dma_341.log	Energy: -978605.9654765
S         -1.23637       -1.42549       -0.80911
O         -1.25775       -2.84671       -1.09994
O         -0.60731       -1.03025        0.48483
O         -2.67047       -0.81597       -0.79622
H         -3.00318       -0.61914        0.23247
C         -0.43922       -0.54377       -2.11781
H          0.58399       -0.92034       -2.17585
H         -0.99012       -0.75318       -3.03534
H         -0.43554        0.52380       -1.86242
S          2.71612       -0.18932        0.42088
O          2.36325        1.18650        0.75670
O          2.67704       -0.57784       -0.98197
O          1.85466       -1.20090        1.28832
H          0.90231       -1.20546        0.96449
C          4.31489       -0.55715        1.10053
H          5.02672        0.09174        0.58955
H          4.29461       -0.34433        2.16885
H          4.53783       -1.60597        0.90777
N         -3.31636       -0.38244        1.60695
H         -3.75142       -1.21214        2.00154
C         -4.11903        0.81815        1.88218
H         -4.26635        0.99008        2.95264
H         -3.61599        1.68425        1.44991
H         -5.09272        0.71289        1.40051
H         -2.38610       -0.31469        2.01733
N         -0.07817        2.42711       -0.73332
C         -1.10299        2.43501        0.29349
C          0.08058        3.71497       -1.38537
H          0.80385        2.13213       -0.32168
H         -2.08509        2.58529       -0.17289
H         -1.10589        1.46334        0.79553
H         -0.96403        3.22436        1.05439
H         -0.83814        3.96902       -1.92686
H          0.29583        4.53936       -0.68267
H          0.89460        3.66118       -2.11296
