43
2msa1eda1tma_123.log	Energy: -1062680.2737222
S          0.12415        2.45002       -0.05386
O          1.14920        2.02392        0.91671
O         -1.27378        2.26754        0.47166
O          0.30088        1.82633       -1.38830
C          0.27758        4.21006       -0.28256
H         -0.48210        4.52960       -0.99570
H          0.13248        4.69154        0.68437
H          1.27689        4.41024       -0.66967
S         -2.89599       -0.72147        0.07977
O         -3.19131       -2.05893        0.57655
O         -2.32375       -0.60153       -1.25719
O         -1.94377       -0.04548        1.13277
H         -1.65815        0.92123        0.85925
C         -4.36331        0.28166        0.15151
H         -5.06380       -0.10968       -0.58690
H         -4.77819        0.21089        1.15678
H         -4.08049        1.30757       -0.08888
H         -0.51199       -1.92485       -1.83821
H          1.22272       -2.06590       -2.20873
H          0.24588       -4.13848       -1.11937
H          1.61348       -3.44855       -0.23773
H         -1.20280       -3.05163        0.54525
H          0.01471       -3.73855        1.41267
H          0.47931        0.06402       -1.06770
H          0.16965       -0.89879        0.27010
C          0.48406       -2.03002       -1.40479
C          0.56858       -3.27453       -0.51996
N          0.73243       -0.82279       -0.58732
N         -0.19588       -3.05441        0.69788
H          1.74898       -0.74943       -0.28795
N          3.41707       -0.62920        0.20349
C          3.28953       -0.46211        1.65187
H          2.62847        0.38319        1.85709
H          2.85018       -1.36563        2.08618
H          4.26764       -0.28287        2.12847
C          4.26091       -1.76952       -0.12690
H          3.85132       -2.67758        0.32606
H          4.29617       -1.90634       -1.21188
H          5.29314       -1.63894        0.24002
C          3.90651        0.59925       -0.42262
H          3.93380        0.47099       -1.50884
H          3.22304        1.41628       -0.18044
H          4.92083        0.85605       -0.07394
