25
2msa1ma_55.log	Energy: -893793.1314974
S          2.58349        0.33072       -0.08428
O          3.95554        0.64257       -0.39908
O          2.20069       -1.07660        0.09941
O          1.67882        0.95635       -1.23090
H          0.77287        0.54785       -1.23816
C          2.07665        1.22240        1.36833
H          2.68843        0.85600        2.19371
H          2.26042        2.28212        1.19248
H          1.01928        1.01990        1.55255
S         -1.11398       -0.94837        0.10250
O         -0.75296       -0.17950       -1.10253
O         -1.06546       -0.21987        1.36134
O         -0.19184       -2.23811        0.17117
H          0.75748       -1.93764        0.16429
C         -2.69145       -1.70025       -0.13689
H         -3.38633       -0.86111       -0.27187
H         -2.63965       -2.32237       -1.03007
H         -2.91974       -2.28939        0.75111
N         -3.62450        1.34706       -0.73143
H         -2.73695        1.43118       -1.21880
C         -3.61307        2.14069        0.49923
H         -3.43642        3.21449        0.34517
H         -4.57236        2.02318        1.01083
H         -2.83506        1.75556        1.16353
H         -4.34365        1.67752       -1.36569
