26
2msa2a_33.log	Energy: -904641.4572407
S         -1.77026       -0.47412       -0.48348
O         -3.10868       -0.89376       -0.84931
O         -1.39455        0.90489       -0.85039
O         -0.76713       -1.48749       -1.14376
H          0.18092       -1.39448       -0.78743
C         -1.51394       -0.65496        1.26385
H         -2.27171       -0.02366        1.73920
H         -1.66913       -1.70527        1.51184
H         -0.49639       -0.33437        1.50109
S          2.35042       -0.13721        0.20866
O          1.57822       -1.36750       -0.12042
O          1.67552        0.69517        1.23750
O          2.70325        0.66265       -0.99858
H          1.57444        1.95836       -1.07155
C          3.88256       -0.72032        0.89897
H          3.64993       -1.31066        1.78523
H          4.38111       -1.33058        0.14609
H          4.48863        0.14756        1.15913
N          0.77380        2.49906       -0.65962
H          0.96750        2.48450        0.34715
H         -0.09626        1.93465       -0.80327
H          0.68507        3.43983       -1.03030
N         -4.48460        0.84666        1.38815
H         -4.49033        0.26988        0.54984
H         -4.65253        1.80484        1.10122
H         -5.26303        0.56073        1.97187
