43
2msa1eda1tma_116.log	Energy: -1062680.1058572
S         -1.74936       -1.93976       -0.43893
O         -2.75900       -0.88056       -0.77563
O         -1.62786       -2.19524        1.00461
O         -0.43427       -1.67778       -1.08522
C         -2.41069       -3.40488       -1.20760
H         -3.37997       -3.61289       -0.75464
H         -2.51402       -3.21697       -2.27609
H         -1.71423       -4.22301       -1.02251
S         -1.52251        2.19326        0.30445
O         -0.70298        2.20384       -0.90370
O         -0.83565        1.74555        1.52691
O         -2.85085        1.41840        0.09818
H         -2.74876        0.42082       -0.25877
C         -2.17117        3.81890        0.60406
H         -2.70444        4.14236       -0.28931
H         -2.83711        3.77127        1.46516
H         -1.32076        4.47044        0.80686
H          1.96932       -0.87900        2.65491
H          0.34306       -1.56502        2.38824
H          1.98273       -3.34003        2.10027
H          1.18732       -2.96840        0.56655
H          3.91887       -2.20220        1.29370
H          3.40217       -3.02460       -0.02029
H          0.42938        0.44105        1.21354
H          1.90180        0.11719        0.44786
C          1.29727       -1.32591        1.91557
C          1.89523       -2.58430        1.30656
N          1.03356       -0.31851        0.86336
N          3.15654       -2.28630        0.62887
H          0.51649       -0.76922        0.07734
N          2.95889        1.07322       -0.63736
C          2.70362        2.50113       -0.47244
H          1.62922        2.68734       -0.54438
H          3.05789        2.82763        0.51034
H          3.21763        3.10029       -1.24405
C          4.37856        0.76860       -0.52823
H          4.75589        1.10538        0.44241
H          4.51883       -0.31237       -0.59962
H          4.96736        1.26463       -1.31995
C          2.41076        0.58574       -1.90286
H          2.54840       -0.49757       -1.96270
H          1.33990        0.80202       -1.94860
H          2.90341        1.05683       -2.77014
