42
2msa2eda_327.log	Energy: -1072753.6819605
S          0.63639        2.24289        0.30490
O          1.68365        2.51688       -0.68919
O          1.09299        1.58027        1.53815
O         -0.50745        1.47290       -0.33584
C         -0.07844        3.80996        0.77242
H          0.71244        4.41437        1.21731
H         -0.46992        4.28901       -0.12505
H         -0.87215        3.62593        1.49720
S         -3.24883       -0.47911       -0.44647
O         -3.80740       -1.54371        0.37507
O         -2.21910       -0.82358       -1.42047
O         -2.70940        0.64445        0.51911
H         -1.80906        1.04063        0.20010
C         -4.58258        0.34365       -1.28705
H         -5.03262       -0.38030       -1.96716
H         -5.30495        0.67447       -0.54124
H         -4.16923        1.18785       -1.83876
H          1.48909       -2.35005        1.12170
H          1.05526       -0.68855        1.62392
H         -0.44095       -2.42812        2.67648
H         -1.32979       -1.29228        1.67490
H         -0.91633       -4.09228        1.13888
H         -2.11427       -3.07886        0.63418
H          1.47204       -0.97834       -0.79985
H          0.00980       -1.94965       -0.80145
C          0.71629       -1.57629        1.08609
C         -0.60235       -2.10853        1.63966
N          0.53580       -1.20115       -0.33688
N         -1.11283       -3.16896        0.77386
H         -0.01720       -0.33075       -0.42551
H          4.61208        0.70147       -0.23794
H          3.25890        0.22566        0.78133
H          5.10180       -1.35767        1.08150
H          3.75497       -2.18387        0.28474
H          6.15605       -1.21199       -1.08444
H          5.62101       -2.75234       -0.97614
H          2.59390        0.77206       -1.46750
H          3.46501       -0.52038       -2.04428
C          3.84302       -0.07277       -0.09513
C          4.52238       -1.41283        0.14747
N          2.94140       -0.16326       -1.24877
N          5.32090       -1.78569       -1.02151
