35
2msa1ma1dma_34.log	Energy: -978632.5334933
S          2.29824       -0.47389       -0.56717
O          3.74155       -0.58137       -0.73520
O          1.70572        0.79905       -1.10100
O          1.84527       -0.67700        0.85670
H          0.98360        1.72225       -0.01703
C          1.51938       -1.77726       -1.50445
H          1.77680       -1.63088       -2.55403
H          1.92054       -2.72776       -1.14944
H          0.43731       -1.72025       -1.35727
S         -2.31891       -0.12590       -0.52166
O         -3.77434       -0.05163       -0.55819
O         -1.72012       -1.46544       -0.70735
O         -1.74043        0.49855        0.74817
H         -1.06985       -0.88414        1.56908
C         -1.69031        0.88873       -1.85411
H         -2.04478        0.44914       -2.78714
H         -2.10133        1.89367       -1.74437
H         -0.59709        0.88407       -1.82570
N         -0.38107       -1.56599        1.96660
H          0.52441       -1.32288        1.47173
C         -0.78107       -2.97530        1.74988
H          0.01301       -3.63251        2.10489
H         -1.70807       -3.17696        2.28670
H         -0.95295       -3.10626        0.68339
H         -0.25901       -1.35962        2.95549
N          0.35936        2.21758        0.68416
C         -0.02176        3.54812        0.17623
C          1.02931        2.23848        1.99974
H         -0.48887        1.59871        0.73034
H          0.87008        4.17067        0.08876
H         -0.47802        3.43211       -0.80658
H         -0.73548        4.01134        0.85983
H          1.88527        2.91429        1.95756
H          0.32586        2.57741        2.76278
H          1.38650        1.22939        2.20824
