30
2msa1eda_129.log	Energy: -953191.2243270
S         -1.90163       -1.33632        0.06791
O         -1.14996       -1.36704        1.33190
O         -1.11918       -0.85470       -1.09510
O         -3.19638       -0.56913        0.17694
H         -2.97120        0.80115       -0.44747
C         -2.40105       -3.01381       -0.28587
H         -1.49954       -3.62159       -0.37033
H         -3.02312       -3.36545        0.53740
H         -2.95755       -3.01985       -1.22308
S          3.02558       -0.07105       -0.12670
O          3.84142       -0.34064       -1.29980
O          2.41976        1.23687        0.05503
O          3.97540       -0.32850        1.17108
H          4.85647       -0.56154        0.84573
C          1.79401       -1.31839        0.09005
H          1.04161       -1.17618       -0.69198
H          2.27854       -2.29144        0.01290
H          1.31152       -1.18065        1.05850
H         -2.57814        3.63714        0.35431
H         -2.97826        2.20618        1.34485
H         -0.55505        2.92158        1.60957
H         -0.71613        1.28131        0.97670
H          0.06645        3.63592       -0.54897
H          0.69157        2.12507       -0.55859
H         -3.54611        2.23022       -1.20431
H         -1.91333        1.85011       -1.32349
C         -2.37439        2.57460        0.51397
C         -0.87977        2.33720        0.74007
N         -2.75189        1.82685       -0.71564
N         -0.17556        2.65220       -0.49876
