26
2msa2a_73.log	Energy: -904636.7605520
S         -2.28851       -0.48384       -0.05760
O         -3.44632       -1.18733       -0.60035
O         -2.54179        0.87980        0.46483
O         -1.11076       -0.45361       -1.01481
H         -0.68298        1.04025       -1.35787
C         -1.68896       -1.44674        1.32970
H         -2.47125       -1.46035        2.08932
H         -1.48908       -2.46162        0.98235
H         -0.78137       -0.98000        1.71701
S          2.23244       -0.26170        0.00233
O          2.24167        0.70937       -1.07646
O          1.62566        0.08254        1.28259
O          3.78198       -0.63386        0.31004
H          3.93902       -0.51765        1.25819
C          1.60765       -1.80424       -0.59667
H          0.56014       -1.61157       -0.86252
H          2.19872       -2.08897       -1.46731
H          1.69355       -2.54156        0.20139
N         -0.31257        2.58811        1.24571
H         -0.34553        3.44691        1.78296
H          0.41420        1.98843        1.62943
H         -1.20264        2.09113        1.34184
N         -0.30372        2.03416       -1.45037
H          0.64075        1.98089       -1.82815
H         -0.26379        2.42573       -0.45497
H         -0.91408        2.59183       -2.03956
