37
2msa1ma1eda_390.log	Energy: -1013353.7364093
S          1.42208       -0.15415       -0.62588
O          1.66485       -1.19096        0.41219
O          1.50690        1.23143       -0.13565
O          0.10244       -0.42884       -1.30910
H         -1.08791        0.51167       -1.28881
C          2.67493       -0.37076       -1.86749
H          2.63788       -1.40396       -2.21300
H          2.45853        0.32201       -2.68135
H          3.63453       -0.12846       -1.40031
S         -2.32223        1.64792        0.11088
O         -3.67244        2.15900        0.03561
O         -1.94851        1.06451       -1.30048
O         -2.03152        0.63370        1.14196
H         -1.14645       -0.80264        1.33734
C         -1.17047        2.97938        0.33912
H         -1.36804        3.41109        1.32096
H         -0.16003        2.56628        0.27801
H         -1.35198        3.71149       -0.44793
N          4.61210        1.20686        0.33838
H          5.31646        1.93508        0.37437
C          4.69899        0.33631        1.50965
H          4.59362        0.85535        2.47460
H          3.91173       -0.41967        1.44631
H          5.66234       -0.18278        1.50706
H          3.70017        1.65585        0.30441
H         -1.28180       -3.75909        1.59347
H         -2.59852       -2.59931        1.95023
H         -2.92320       -3.58819       -0.25273
H         -2.58649       -1.86621       -0.42477
H         -1.29112       -3.73468       -1.79809
H         -0.51627       -2.36639       -1.32383
H         -0.44819       -1.70662        2.54010
H          0.14687       -1.81184        1.00230
C         -1.73573       -2.80698        1.31219
C         -2.13645       -2.83372       -0.15804
N         -0.73486       -1.73370        1.56321
N         -1.00027       -3.19822       -0.99119
