32
2msa2ma_180.log	Energy: -953956.8344045
S          2.61154       -0.92017       -0.13305
O          3.05774        0.48429       -0.22141
O          1.93191       -1.44676       -1.30757
O          1.76348       -1.12588        1.15853
H          0.91838       -0.48113        1.16170
C          4.02463       -1.91919        0.25585
H          4.70506       -1.85470       -0.59361
H          4.48817       -1.52440        1.15912
H          3.68416       -2.94407        0.40138
S         -1.37030        0.39657        0.28184
O         -2.57502        0.67634        1.05646
O         -0.10713        0.46590        1.12205
O         -1.18604        1.28043       -0.91201
H          0.22626        1.97892       -0.92631
C         -1.46611       -1.26916       -0.33492
H         -1.51107       -1.94013        0.52453
H         -2.39016       -1.33143       -0.91856
H         -0.58099       -1.47175       -0.94066
N          1.17364        2.45906       -0.80390
H          1.88604        1.71433       -0.66915
C          1.12783        3.33888        0.38828
H          2.10319        3.79949        0.54517
H          0.36422        4.10232        0.24038
H          0.85789        2.71387        1.23911
H          1.39724        2.97357       -1.65256
N         -4.65487       -0.61315       -0.86274
H         -4.29835        0.25484       -0.47267
C         -5.19910       -1.44647        0.20536
H         -6.06640       -1.01597        0.72773
H         -5.49326       -2.41925       -0.20117
H         -4.41708       -1.61537        0.95084
H         -5.36761       -0.38183       -1.54527
