37
2msa1ma1eda_543.log	Energy: -1013348.5182413
S          0.29247       -2.30870       -0.19912
O          0.50836       -3.69247        0.20401
O          1.08706       -1.32808        0.62473
O         -1.14817       -1.89148       -0.24093
H         -2.01443       -1.26605        0.83647
C          0.86800       -2.10232       -1.87230
H          1.92071       -2.38655       -1.89967
H          0.27920       -2.76015       -2.51209
H          0.73276       -1.05463       -2.14456
S          0.40075        1.97719       -0.40973
O         -0.54698        3.03757       -0.09579
O          0.12170        1.11266       -1.55274
O          0.52572        1.09436        0.89856
H          0.75312        0.10258        0.71025
C          2.02573        2.66438       -0.59218
H          2.02116        3.25379       -1.51014
H          2.22028        3.29921        0.27268
H          2.73918        1.83164       -0.64315
N          3.76715       -0.01264        0.13093
H          3.03338       -0.71750        0.16722
C          4.02522        0.48632        1.48087
H          4.35226       -0.28108        2.19653
H          4.79030        1.26848        1.44458
H          3.10803        0.93679        1.87191
H          4.59723       -0.45132       -0.25240
H         -3.40109        1.15457        1.96782
H         -1.69222        1.03762        1.46011
H         -3.11405        2.06710       -0.34328
H         -2.37052        0.55848       -0.85580
H         -5.19039        0.96004       -0.23536
H         -4.50039        0.03968       -1.39692
H         -2.68055       -1.07465        2.40234
H         -3.67909       -1.07353        1.04874
C         -2.70717        0.69771        1.25621
C         -3.12089        0.98488       -0.18352
N         -2.77001       -0.78021        1.43328
N         -4.41473        0.33762       -0.43292
