42
2msa2eda_322.log	Energy: -1072753.3396165
S         -1.61528        0.23713       -1.82280
O         -2.55900       -0.59118       -1.03166
O         -0.27506       -0.35968       -1.94835
O         -1.56034        1.65130       -1.30975
C         -2.31746        0.37604       -3.45323
H         -2.40654       -0.62756       -3.86945
H         -3.29710        0.84476       -3.36034
H         -1.64989        0.98984       -4.05802
S          1.12173        1.97677        0.83274
O          2.31236        1.20153        0.50177
O          0.08084        1.27825        1.60367
O          0.50667        2.63966       -0.42732
H         -0.37223        2.16335       -0.80410
C          1.62325        3.40645        1.75954
H          2.11756        3.04859        2.66294
H          2.31317        3.98441        1.14489
H          0.73337        3.98643        2.00212
H         -1.73241       -2.97814        2.15859
H         -0.78990       -1.84245        3.15948
H         -3.17135       -1.61698        3.66654
H         -2.58231       -0.13512        2.90385
H         -4.75013       -1.15626        2.04396
H         -3.65795       -0.88603        0.85431
H         -0.00588       -1.77287        0.82252
H         -1.57592       -1.34390        0.33349
C         -1.52635       -1.92422        2.35613
C         -2.81475       -1.19743        2.72065
N         -0.92506       -1.33655        1.13865
N         -3.83349       -1.41938        1.70362
H         -0.68154       -0.34445        1.29875
H          3.37570       -2.13001       -2.04430
H          4.41793       -3.23834       -1.13804
H          2.04068       -3.67520       -0.67137
H          2.90221       -3.16536        0.78945
H          1.99744       -0.96757        0.47266
H          1.19498       -1.41726       -0.86064
H          5.34512       -1.13129       -0.82635
H          3.93147       -0.43136       -0.41029
C          3.73400       -2.38854       -1.03306
C          2.53977       -2.82843       -0.18734
N          4.45457       -1.30221       -0.37446
N          1.55053       -1.77071        0.03038
