32
2msa1a1dma_22.log	Energy: -953972.1107021
S         -2.54827        0.16975        0.00673
O         -3.94620        0.41240        0.29412
O         -2.02375       -0.88404        1.05679
O         -1.62704        1.30899       -0.03932
H          0.54860        1.17219       -0.32903
C         -2.40874       -0.69220       -1.54445
H         -3.00729       -1.60116       -1.48152
H         -2.80355       -0.02822       -2.31466
H         -1.35094       -0.90458       -1.71667
S          1.29378       -1.48086        0.06069
O          2.74830       -1.42464        0.28090
O          0.82721       -0.69613       -1.11290
O          0.51746       -1.09411        1.28575
H         -1.00649       -0.91600        1.13478
C          0.88231       -3.18620       -0.26360
H          1.40787       -3.49649       -1.16692
H          1.20372       -3.77901        0.59295
H         -0.19745       -3.26323       -0.39855
N          3.76456        1.22708       -0.46477
H          4.51983        1.58970        0.10799
H          4.07556        1.25302       -1.43077
H          3.62283        0.24127       -0.21656
N          1.09597        1.98685       -0.01009
C          0.92143        2.14036        1.45168
C          0.69352        3.17262       -0.79108
H          2.11087        1.75582       -0.21143
H         -0.12324        2.37367        1.65598
H          1.17860        1.19294        1.92611
H          1.57619        2.94064        1.80191
H         -0.36525        3.36539       -0.61927
H          1.29593        4.02754       -0.47819
H          0.86352        2.96950       -1.84884
