40
2msa1dma1eda_348.log	Energy: -1038015.4156878
S         -0.47781       -1.52618       -0.18637
O         -1.62323       -1.99899       -0.96927
O         -0.79478       -0.96276        1.13603
O          0.34195       -0.50088       -0.98129
C          0.63777       -2.89473        0.05421
H          0.10390       -3.65251        0.62854
H          0.91935       -3.28616       -0.92387
H          1.50892       -2.53389        0.60431
S          3.41181        0.16845        0.17964
O          3.23324       -0.85671        1.19633
O          2.90381        1.51194        0.48517
O          2.83905       -0.31667       -1.20445
H          1.81680       -0.46192       -1.14349
C          5.12884        0.30507       -0.24765
H          5.64766        0.64272        0.64998
H          5.48567       -0.67777       -0.55393
H          5.22999        1.03313       -1.05169
N         -3.96740       -0.22611        0.02918
C         -5.18308       -0.16753       -0.76701
C         -4.17924       -0.81615        1.34546
H         -3.26721       -0.78541       -0.45660
H         -5.90304        0.51003       -0.29284
H         -4.95571        0.22620       -1.76182
H         -5.67292       -1.14843       -0.88635
H         -4.81424       -0.15687        1.94970
H         -4.66598       -1.80433        1.29739
H         -3.21229       -0.92612        1.84113
H         -0.27797        3.82919        0.12492
H          0.23851        2.87169       -1.28665
H         -2.26183        3.39728       -1.31501
H         -1.91098        1.66662       -1.31022
H         -3.13450        3.15381        0.81903
H         -3.17629        1.51868        0.45645
H          1.01358        1.95350        0.90059
H         -0.64568        1.67149        1.23577
C         -0.38884        2.87324       -0.39305
C         -1.85974        2.57954       -0.70502
N          0.07777        1.79953        0.51231
N         -2.57924        2.35505        0.54072
H          0.13777        0.89944       -0.01501
