37
2msa1ma1eda_197.log	Energy: -1013361.8266190
S         -0.08048        2.01062       -0.52199
O         -0.32212        1.32350        0.79929
O         -1.26416        1.98573       -1.38753
O          1.16640        1.49343       -1.14658
C          0.25208        3.71320       -0.10917
H         -0.63737        4.12599        0.36709
H          1.10522        3.74466        0.56885
H          0.47375        4.24313       -1.03573
S         -2.69217       -1.21671        0.26082
O         -3.60403       -2.15910        0.87279
O         -1.42735       -1.73019       -0.28727
O         -2.37854       -0.09966        1.32793
H         -1.58744        0.48562        1.06651
C         -3.51596       -0.33339       -1.04187
H         -3.74809       -1.05868       -1.82257
H         -4.42918        0.09269       -0.62636
H         -2.84120        0.44682       -1.40413
N          1.91737       -0.12655        2.20716
H          1.01604        0.34809        2.21326
C          2.97911        0.85244        1.95919
H          3.04274        1.63755        2.72397
H          3.93860        0.33413        1.89717
H          2.79539        1.32650        0.99041
H          2.04300       -0.58367        3.10339
H          1.90870       -3.12491       -0.62753
H          1.42806       -2.24677       -2.08510
H          3.83727       -2.50163       -2.13289
H          3.45456       -0.79656       -1.87683
H          4.37168       -2.64029        0.20984
H          5.05114       -1.23281       -0.27235
H          0.30117       -1.37194       -0.18755
H          1.71858       -1.01552        0.65336
C          1.97577       -2.16266       -1.14343
C          3.42644       -1.78495       -1.40600
N          1.30360       -1.14900       -0.30955
N          4.16814       -1.71432       -0.15173
H          1.32983       -0.20335       -0.74656
