43
2msa1eda1tma_65.log	Energy: -1062683.7934354
S          1.63011        2.13362       -0.58079
O          1.58912        3.39237       -1.29460
O          1.61013        0.97672       -1.64742
O          0.58598        1.87790        0.42520
H         -0.51145        0.49028        0.75652
C          3.20290        1.93722        0.21963
H          3.97749        2.07005       -0.53582
H          3.27238        2.71084        0.98526
H          3.23738        0.93573        0.65726
S          1.64048       -1.93947        0.50352
O          0.61246       -2.25166        1.52864
O          2.80336       -1.18791        0.99053
O          0.98912       -1.27901       -0.68798
H          1.41928        0.05953       -1.22983
C          2.23308       -3.50991       -0.09928
H          2.68718       -4.03782        0.73962
H          1.38615       -4.07016       -0.49545
H          2.97148       -3.31761       -0.87784
H         -2.62547       -0.24720        2.68214
H         -1.06346        0.44708        3.14635
H         -2.67229        2.25864        3.02524
H         -1.50485        2.42925        1.70903
H         -4.27253        1.53565        1.43325
H         -3.47671        2.70121        0.60948
H         -0.65692       -1.03333        1.37422
H         -1.88802       -0.40672        0.37941
C         -1.81856        0.41657        2.35712
C         -2.33712        1.82021        2.07409
N         -1.19767       -0.17299        1.15327
N         -3.37153        1.79120        1.04247
N         -2.64213       -0.89829       -1.12740
C         -4.09816       -0.85534       -1.11766
H         -4.48411       -1.58748       -0.40156
H         -4.42371        0.14087       -0.80949
H         -4.52435       -1.08259       -2.11008
C         -2.09199        0.11842       -2.02244
H         -2.41185        1.10709       -1.68203
H         -1.00028        0.07759       -1.99723
H         -2.42349       -0.02906       -3.06360
C         -2.14624       -2.22816       -1.47497
H         -1.05463       -2.22856       -1.42072
H         -2.53318       -2.96141       -0.76068
H         -2.45898       -2.52905       -2.48937
