44
2msa2tma_47.log	Energy: -1052598.7103834
S         -0.68997       -1.60110       -0.35447
O          0.41002       -2.53282       -0.61351
O         -0.98323       -0.59987       -1.37450
O         -0.45261       -0.90868        1.03822
H         -0.01412        0.03574        0.96758
C         -2.16172       -2.52205        0.00330
H         -2.40994       -3.08143       -0.89989
H         -1.95040       -3.20022        0.83006
H         -2.94432       -1.79454        0.25372
S          1.28642        2.02085       -0.12145
O          2.09266        3.16701        0.28568
O          0.63888        1.32548        1.04811
O          2.02119        1.01614       -0.95881
H          2.71244       -0.15012       -0.22749
C         -0.04610        2.58817       -1.15663
H         -0.66173        3.26905       -0.56778
H          0.39177        3.10489       -2.01090
H         -0.61074        1.71119       -1.47712
N         -4.07642        0.17343        0.32194
C         -4.28825        0.35541       -1.10553
H         -3.33071        0.27761       -1.62728
H         -4.95362       -0.42748       -1.48371
H         -4.74486        1.33615       -1.33950
C         -5.33274        0.18860        1.04968
H         -5.99133       -0.60145        0.67558
H         -5.14852        0.00701        2.11275
H         -5.86413        1.15493        0.95207
C         -3.15691        1.17438        0.84142
H         -2.94868        0.98034        1.89701
H         -2.21194        1.12370        0.29756
H         -3.56279        2.20003        0.74653
N          3.38856       -0.84411        0.22996
C          3.62522       -1.92914       -0.75180
H          2.66859       -2.40890       -0.96223
H          4.02778       -1.48845       -1.66452
H          4.33717       -2.64632       -0.33501
C          4.60641       -0.04551        0.50209
H          4.97112        0.37115       -0.43680
H          4.34315        0.77367        1.17241
H          5.36669       -0.68399        0.95834
C          2.77352       -1.34838        1.48228
H          2.46417       -0.49309        2.08482
H          1.89813       -1.94318        1.22445
H          3.50678       -1.95446        2.02043
