37
2msa1ma1eda_418.log	Energy: -1013352.9977993
S         -0.84861        2.02145       -0.40573
O         -2.27700        2.29754       -0.57287
O         -0.34059        1.04124       -1.43373
O         -0.48504        1.55165        0.96904
H         -1.26097        0.21031        1.46963
C          0.07045        3.52056       -0.66188
H         -0.09708        3.84039       -1.69057
H         -0.30714        4.26473        0.04016
H          1.12405        3.29979       -0.46671
S          1.20321       -1.78613       -0.28829
O          0.39905       -2.62667       -1.17357
O          0.66576       -1.55538        1.05577
O          1.57119       -0.43721       -0.97498
H          0.73944        0.20262       -1.15556
C          2.82512       -2.49263       -0.13281
H          2.70188       -3.46384        0.34722
H          3.24991       -2.60471       -1.12998
H          3.43225       -1.82912        0.48287
N          2.60965        1.96854        0.96064
H          2.63054        2.45175        1.85222
C          3.85216        1.24075        0.73421
H          4.08660        0.48163        1.49904
H          3.79558        0.74103       -0.23617
H          4.68811        1.94574        0.69639
H          1.81145        1.33968        0.99255
H         -3.96725       -0.99408        1.43475
H         -3.38074        0.52062        0.66967
H         -3.70795       -1.30180       -1.02960
H         -2.02973       -0.79123       -0.92977
H         -3.10263       -3.34027       -0.07921
H         -1.56807       -2.93971       -0.55852
H         -2.14406       -0.44613        2.73938
H         -1.46094       -1.46970        1.60516
C         -3.14615       -0.52340        0.88831
C         -2.82363       -1.30995       -0.38232
N         -1.93068       -0.56085        1.75214
N         -2.37061       -2.64542       -0.00978
