40
2msa1dma1eda_383.log	Energy: -1038012.5587000
S          0.96642       -1.40796       -0.87386
O         -0.15639       -2.10827       -1.52287
O          0.77806       -1.14946        0.55949
O          1.29764       -0.09375       -1.62525
H          0.47724        0.63178       -1.57022
C          2.45444       -2.33146       -1.12665
H          3.26102       -1.78746       -0.62220
H          2.29872       -3.30965       -0.66999
H          2.61900       -2.42489       -2.19966
S         -0.97038        2.26154       -0.29651
O         -1.35844        3.62886       -0.60079
O         -0.54374        1.48204       -1.52823
O         -1.98821        1.46073        0.44752
H         -2.29475        0.01021       -0.25056
C          0.47256        2.30259        0.75491
H          1.26295        2.83825        0.22804
H          0.19781        2.83166        1.66788
H          0.77037        1.27565        0.97490
N          3.78148       -0.21352        1.02941
C          3.91943        1.07742        0.37268
C          4.64260       -0.35076        2.19208
H          2.81172       -0.35687        1.29809
H          4.93097        1.17298       -0.03683
H          3.21126        1.13974       -0.45736
H          3.74996        1.93350        1.04985
H          5.69098       -0.32544        1.87502
H          4.50128        0.44692        2.94257
H          4.46202       -1.31492        2.67521
H         -2.60156       -2.75810        0.74684
H         -1.58822       -1.45869        1.41287
H         -3.78038       -1.63791        2.66074
H         -3.60027       -0.07884        1.84382
H         -5.35112       -2.26459        1.01095
H         -5.65186       -0.65620        1.06990
H         -1.77034       -1.41679       -1.01862
H         -3.43610       -1.09267       -0.82817
C         -2.53192       -1.67934        0.91163
C         -3.73890       -1.15118        1.67834
N         -2.50374       -1.01233       -0.41236
N         -4.94170       -1.34843        0.86665
