42
2msa2eda_302.log	Energy: -1072755.2036584
S          0.16778       -2.23664       -0.11308
O         -0.98607       -1.48277       -0.68392
O          0.33488       -2.00368        1.32960
O          1.41729       -2.00272       -0.90271
C         -0.19783       -3.96294       -0.36117
H         -1.11707       -4.19466        0.17747
H         -0.31773       -4.13798       -1.43018
H          0.63654       -4.54170        0.03498
S          2.97671        1.06571       -0.19028
O          2.91172        1.35985        1.23284
O          1.81588        1.48405       -0.99372
O          3.30057       -0.43669       -0.45581
H          2.46851       -1.05201       -0.59066
C          4.43268        1.81675       -0.87526
H          4.34316        2.89131       -0.71409
H          5.29901        1.41883       -0.34728
H          4.47774        1.58255       -1.93819
H          0.39600        0.43820        1.97638
H          0.03234        2.17163        2.02083
H         -1.32731        0.88099        3.66384
H         -2.34926        1.71142        2.50740
H         -2.79368       -0.30750        1.40473
H         -1.64627       -1.12367        2.25236
H          0.16869        1.40825       -0.21319
H         -0.90699        0.17830        0.02921
C         -0.37696        1.18556        1.78813
C         -1.63225        0.88734        2.61135
N         -0.67096        1.14611        0.32919
N         -2.31285       -0.35655        2.30081
H         -1.48184        1.75712        0.07805
H         -4.80559        2.09406       -1.63557
H         -3.28693        2.65714       -2.34448
H         -3.72612        0.25506       -2.82274
H         -2.21087        0.50259       -1.96745
H         -4.64015       -0.62054       -0.82515
H         -3.07567       -1.13534       -0.74069
H         -3.41898        3.40403       -0.09166
H         -3.67258        1.87785        0.44960
C         -3.71018        2.00418       -1.57470
C         -3.29799        0.56092       -1.85724
N         -3.19941        2.42839       -0.26396
N         -3.67618       -0.31456       -0.74841
