35
2msa1ma1dma_105.log	Energy: -978627.0828833
S          0.81645        1.64247       -0.27413
O         -0.29363        2.28908       -0.97921
O          1.68462        0.77941       -1.12057
O          0.36594        0.86351        0.93625
C          1.87064        2.93101        0.36522
H          2.24616        3.50496       -0.48232
H          1.27255        3.56254        1.02228
H          2.69178        2.46838        0.91330
S         -2.83482       -0.36859        0.19197
O         -4.02025       -1.01874        0.70546
O         -1.89908       -1.17352       -0.61320
O         -2.05962        0.24563        1.41777
H         -1.11065        0.54019        1.18515
C         -3.28366        1.04744       -0.78028
H         -3.81181        0.67683       -1.65954
H         -3.93579        1.67335       -0.17108
H         -2.36599        1.57372       -1.05632
N          3.80285       -1.03851       -0.10139
H          4.72057       -1.37695       -0.36991
C          3.84772       -0.43883        1.23310
H          4.57261        0.38157        1.33749
H          2.85558       -0.04884        1.48100
H          4.09743       -1.20386        1.97476
H          3.52521       -0.32873       -0.77529
N          0.77470       -1.79921       -0.42935
C          0.95642       -2.34074        0.93363
C          1.17207       -2.72725       -1.50655
H         -0.22104       -1.52605       -0.54023
H          2.00746       -2.59945        1.06115
H          0.66815       -1.56668        1.64431
H          0.31846       -3.21760        1.05341
H          2.23267       -2.94994       -1.38468
H          0.57310       -3.63658       -1.43938
H          1.00001       -2.23903       -2.46580
H          1.31151       -0.91869       -0.54130
