37
2msa1ma1eda_31.log	Energy: -1013376.1075172
S         -2.91004        0.08124        0.56939
O         -2.90225       -1.38943        0.72450
O         -3.29006        0.55893       -0.77577
O         -1.58759        0.65963        1.00909
H         -0.40243       -0.68730        0.48330
C         -4.11569        0.72746        1.71312
H         -5.08479        0.30442        1.44754
H         -3.82723        0.43016        2.72126
H         -4.13166        1.81323        1.61733
S          3.03751        0.00071        0.44900
O          2.82322       -0.26722       -0.98972
O          2.53072       -1.09890        1.32078
O          2.50072        1.33459        0.84803
H          1.14511        1.68720       -0.11032
C          4.79449        0.06823        0.73953
H          5.22194       -0.89467        0.45977
H          5.20890        0.86821        0.12595
H          4.95629        0.26897        1.79857
N          0.24825        1.80138       -0.64248
H          0.11859        0.97629       -1.26938
C          0.20252        3.06688       -1.39557
H         -0.75613        3.14887       -1.90915
H          0.31883        3.90129       -0.70408
H          1.01611        3.08137       -2.12078
H         -0.53129        1.70084        0.03469
H         -1.83959       -2.08853       -1.40613
H         -0.74544       -2.46168       -2.74010
H          0.35168       -3.26985       -0.77942
H          1.19966       -1.76705       -1.21870
H         -0.70143       -2.17982        0.98986
H          0.91632       -1.57448        1.00112
H         -0.57717       -0.27684       -3.16588
H         -1.79434       -0.01049       -2.08060
C         -0.87262       -1.83469       -1.85106
C          0.24808       -2.18712       -0.88280
N         -0.85936       -0.40428       -2.20074
N          0.00537       -1.64091        0.48554
