38
2msa2dma_240.log	Energy: -1003267.4111270
S         -2.52117       -1.17191        0.00484
O         -3.14232       -0.61583       -1.18552
O         -2.50468       -0.37136        1.22307
O         -1.04927       -1.66976       -0.31906
H         -0.37983       -0.88989       -0.33454
C         -3.26744       -2.74959        0.35300
H         -4.31778       -2.55415        0.57180
H         -3.17385       -3.38045       -0.53055
H         -2.77016       -3.19209        1.21540
S          1.45034        0.63271        0.76656
O          0.70137        0.15137       -0.45214
O          2.50228        1.58817        0.42013
O          1.96818       -0.57752        1.50958
H          2.58519       -1.49950        0.52378
C          0.27104        1.40412        1.83877
H         -0.11922        2.28815        1.31724
H         -0.53285        0.69244        2.03503
H          0.79551        1.68027        2.75418
N         -0.97699        3.61971       -0.26317
C         -1.74603        2.57409       -0.92756
C          0.17881        4.04767       -1.03832
H         -1.57571        4.41434       -0.06840
H         -1.10665        1.69792       -1.06780
H         -2.58814        2.27153       -0.30075
H         -2.12957        2.87314       -1.91792
H          0.90237        3.22789       -1.09107
H         -0.07302        4.35097       -2.07017
H          0.66877        4.88765       -0.53783
N          3.05003       -2.10145       -0.26751
C          3.85141       -1.17998       -1.11109
C          1.99172       -2.82046       -1.01512
H          3.66512       -2.76939        0.19454
H          3.17052       -0.44743       -1.54571
H          4.56653       -0.65601       -0.47747
H          4.36274       -1.74307       -1.89409
H          1.34898       -2.07570       -1.48337
H          2.44395       -3.46516       -1.77127
H          1.39764       -3.40764       -0.31518
