35
2msa1ma1dma_71.log	Energy: -978627.9342128
S         -2.13582       -0.79291       -0.25931
O         -1.45763       -0.09567       -1.39798
O         -2.10140        0.00444        0.98372
O         -1.61647       -2.17391       -0.07402
H         -0.18409       -2.00211        0.89449
C         -3.83825       -0.96642       -0.75454
H         -4.25202        0.03096       -0.90426
H         -3.86594       -1.53903       -1.68154
H         -4.36828       -1.49002        0.04128
S          0.64298        2.32220        0.12308
O          1.58207        3.40109       -0.10001
O          1.16837        1.05676        0.66180
O         -0.08916        2.04157       -1.23849
H         -0.63732        1.17760       -1.24305
C         -0.66192        2.86676        1.19939
H         -0.20952        3.08407        2.16783
H         -1.09408        3.76868        0.76585
H         -1.39385        2.05846        1.27422
N          0.66356       -1.61335        1.36203
H          1.47530       -1.66227        0.66681
C          0.94842       -2.25876        2.65386
H          1.82890       -1.79955        3.10457
H          0.09272       -2.14043        3.31896
H          1.13534       -3.32035        2.49066
H          0.48844       -0.60493        1.45720
N          2.55353       -1.30391       -0.62765
C          1.75231       -1.48734       -1.84116
C          3.88751       -1.88612       -0.73172
H          2.62235       -0.30561       -0.43667
H          1.58136       -2.55642       -2.00211
H          0.77946       -1.00414       -1.72038
H          2.24399       -1.07595       -2.73399
H          3.80104       -2.97158       -0.84354
H          4.45334       -1.49990       -1.59232
H          4.45388       -1.67832        0.17985
