32
2msa2ma_76.log	Energy: -953964.1399136
S          2.60586        0.20070       -0.36528
O          1.98509        1.51340       -0.56398
O          2.50240       -0.78200       -1.42789
O          2.12725       -0.39452        1.01564
H          1.23437       -0.91084        0.98384
C          4.31921        0.46877        0.03089
H          4.77397        0.92996       -0.84640
H          4.38056        1.13401        0.89160
H          4.77986       -0.49550        0.24257
S         -1.22518       -1.39271        0.24166
O         -2.46266       -0.99638        0.94024
O         -0.07740       -1.61074        1.17769
O         -0.85048       -0.45445       -0.85345
H         -0.53967        1.12280       -0.28669
C         -1.51655       -2.96860       -0.53333
H         -1.77028       -3.68689        0.24625
H         -2.34042       -2.85496       -1.23813
H         -0.60222       -3.26018       -1.05032
N         -0.67857        2.03552        0.20684
H         -0.06002        2.71223       -0.23409
C         -0.38196        1.87469        1.64865
H         -0.55696        2.82044        2.16248
H         -1.04532        1.10453        2.04473
H          0.65341        1.55916        1.76767
H         -1.71056        2.23210        0.07927
N         -3.41598        1.71686       -0.02479
H         -3.33254        0.82070        0.46333
C         -3.69622        1.45483       -1.44317
H         -4.64129        0.92366       -1.60872
H         -3.72871        2.39913       -1.99416
H         -2.88464        0.84387       -1.84693
H         -4.17898        2.23064        0.40329
