43
2msa1eda1tma_21.log	Energy: -1062693.5590515
S         -2.42668        0.94917       -0.31811
O         -2.82387       -0.16877       -1.20332
O         -2.27349        2.25604       -0.97864
O         -1.21203        0.58933        0.49373
C         -3.74722        1.12970        0.87492
H         -4.65326        1.40791        0.33561
H         -3.88472        0.17651        1.38757
H         -3.47038        1.90946        1.58504
S          2.73202       -0.94333       -0.21970
O          3.48517        0.13404       -0.88773
O          2.14274       -1.94326       -1.15393
O          1.70503       -0.42471        0.73301
C          3.91287       -1.85139        0.76744
H          4.35671       -1.16477        1.48898
H          3.39154       -2.66180        1.27753
H          4.67551       -2.24803        0.09683
H         -0.61465       -3.89805       -0.00059
H          0.00920       -2.77770        1.24339
H         -2.29455       -3.60157        1.76392
H         -2.23624       -1.84501        1.58364
H         -4.00811       -3.34083        0.30009
H         -3.35426       -2.03105       -0.45869
H         -0.59075       -0.93793       -0.12651
H          0.45491       -1.96491       -0.95054
C         -0.74948       -2.92230        0.47083
C         -2.15956       -2.79599        1.03584
N         -0.51083       -1.88399       -0.55806
N         -3.14450       -2.93193       -0.03133
H         -1.21932       -1.92474       -1.29406
N          1.11128        2.35550        0.34580
C          0.12727        3.28218        0.96209
H         -0.82988        3.16481        0.45513
H          0.03137        3.03747        2.02023
H          0.49993        4.30224        0.84394
C          2.46558        2.54030        0.93003
H          2.41383        2.32817        1.99817
H          3.15124        1.84994        0.43872
H          2.77164        3.57568        0.76472
C          1.13337        2.49425       -1.13797
H          1.84202        1.76485       -1.53347
H          0.12294        2.31921       -1.50998
H          1.45410        3.50947       -1.38233
H          0.81877        1.37814        0.53863
