30
2msa1eda_48.log	Energy: -953204.6141303
S         -1.60837        1.38343        0.03353
O         -2.59774        0.45161        0.60259
O         -1.10733        0.96061       -1.30494
O         -0.47215        1.66675        0.96845
C         -2.42667        2.94633       -0.21188
H         -3.25417        2.79093       -0.90422
H         -2.79157        3.29067        0.75598
H         -1.70242        3.64858       -0.62471
S          2.43840        0.00684        0.00144
O          2.24851       -0.33469       -1.40855
O          1.88010       -0.94521        0.96159
O          1.93852        1.45678        0.30701
H          0.92852        1.51259        0.55405
C          4.17417        0.22439        0.30541
H          4.65641       -0.73073        0.09584
H          4.54366        0.99855       -0.36664
H          4.30964        0.50805        1.34845
H         -2.38573       -1.48272       -1.12843
H         -1.67134       -2.90506       -1.92436
H         -2.96296       -3.35558        0.26196
H         -1.31429       -4.00069        0.24509
H         -2.02804       -1.42518        1.49322
H         -1.41351       -2.78152        2.24257
H         -0.41325       -0.60166       -1.23654
H         -0.06522       -1.58135        0.08016
C         -1.64329       -2.27727       -1.03277
C         -1.90046       -3.07452        0.25109
N         -0.32221       -1.59986       -0.93067
N         -1.46388       -2.26564        1.37507
H          0.44451       -2.03093       -1.44308
