40
2msa1dma1eda_274.log	Energy: -1038019.7446937
S          0.97931       -1.81511       -0.71840
O         -0.28427       -2.42188       -0.18236
O          1.98313       -1.58681        0.35136
O          0.71803       -0.60585       -1.52253
C          1.66586       -3.05335       -1.80020
H          1.84990       -3.95463       -1.21533
H          0.94118       -3.24719       -2.59120
H          2.59654       -2.66364       -2.21295
S         -2.61254        0.17342        0.02172
O         -2.75514        1.14562       -1.04733
O         -1.57215        0.43098        1.03199
O         -2.45926       -1.27234       -0.54029
H         -1.51721       -1.70878       -0.38892
C         -4.16826        0.03705        0.87233
H         -4.39269        1.01578        1.29719
H         -4.92597       -0.24818        0.14271
H         -4.07287       -0.71683        1.65309
N          1.48590        2.79929       -1.28474
C          0.15010        2.69275       -1.88519
C          2.52113        2.18884       -2.12295
H          1.70986        3.77804       -1.13297
H         -0.10645        1.63656       -1.99375
H         -0.59112        3.15133       -1.22674
H          0.09485        3.17110       -2.87337
H          2.30294        1.12149       -2.21803
H          2.56248        2.62972       -3.12971
H          3.49812        2.30803       -1.64620
H          2.32982        2.04115        2.35252
H          0.58708        2.42658        2.39431
H          1.16787        1.00749        4.29096
H          0.10388        0.12074        3.18956
H          2.23418       -1.01205        4.06287
H          2.02826       -1.10970        2.44208
H          1.35375        1.80790        0.13292
H          1.74538        0.26065        0.72707
C          1.32224        1.62773        2.26650
C          1.11829        0.53243        3.30617
N          1.15625        1.09211        0.89604
N          2.17986       -0.46255        3.21408
H          0.17896        0.77922        0.76639
