31
2msa1tma_01.log	Energy: -943135.4545390
S          1.46335       -1.47247        0.09646
O          0.48034       -2.15294        0.94409
O          2.55506       -0.76972        0.79158
O          0.78504       -0.51241       -0.88103
C          2.20509       -2.70858       -0.95449
H          2.73219       -3.41427       -0.31179
H          1.40924       -3.21134       -1.50431
H          2.89848       -2.21599       -1.63598
N          1.28902        2.02215       -0.02196
C          2.71189        2.13669       -0.42850
H          3.26201        1.32382        0.04604
H          2.77553        2.03803       -1.51274
H          3.09510        3.11075       -0.11627
C          0.42900        3.01383       -0.71418
H          0.53978        2.87862       -1.79078
H         -0.60536        2.83228       -0.42405
H          0.74701        4.01953       -0.42978
C          1.14068        2.08585        1.45701
H          0.08984        1.93159        1.69753
H          1.74363        1.28545        1.88695
H          1.48390        3.06373        1.80304
H          0.97965        1.06076       -0.32144
S         -2.52131        0.04872       -0.06088
O         -3.84446        0.41953       -0.51746
O         -1.65643        1.08230        0.51767
O         -1.76572       -0.60773       -1.28803
H         -0.76758       -0.62327       -1.12830
C         -2.63888       -1.28367        1.10858
H         -3.12249       -0.88443        2.00092
H         -3.24669       -2.06867        0.65864
H         -1.62744       -1.63855        1.32179
