40
2msa1dma1eda_299.log	Energy: -1038017.3816875
S         -0.23303        2.13693       -0.30174
O          1.14028        2.39163        0.25177
O         -1.24777        1.92886        0.74217
O         -0.21293        1.05246       -1.31897
C         -0.64812        3.64102       -1.16361
H         -0.64401        4.45621       -0.43995
H          0.09918        3.80784       -1.93936
H         -1.63963        3.51607       -1.59951
S          2.76295       -0.70762        0.26492
O          2.56413       -1.40883       -0.99746
O          1.72875       -0.92182        1.29126
O          3.01567        0.80949        0.05389
H          2.15998        1.43822        0.12617
C          4.33027       -1.19696        0.94444
H          5.10566       -0.94538        0.22126
H          4.48168       -0.66739        1.88433
H          4.28763       -2.27449        1.10495
N         -3.12694       -1.08447        1.60993
C         -3.93172       -0.21391        0.74743
C         -2.63356       -0.38348        2.79950
H         -3.68070       -1.88641        1.89388
H         -3.30898        0.62596        0.42716
H         -4.24015       -0.76469       -0.14444
H         -4.81979        0.18344        1.26082
H         -1.97687        0.43045        2.47837
H         -3.44627        0.04530        3.40408
H         -2.05832       -1.07470        3.42162
H          0.28736       -2.11695       -1.50309
H         -0.39521       -3.30178       -0.38545
H         -1.55245       -3.27371       -2.59914
H         -2.64518       -2.98898       -1.23881
H         -1.52967       -0.72371       -2.75277
H         -3.02609       -1.36100       -2.99526
H          0.02076       -1.21314        0.67427
H         -0.83701       -0.38093       -0.45134
C         -0.60418       -2.37525       -0.92508
C         -1.82551       -2.54638       -1.81882
N         -0.80298       -1.28610        0.05649
N         -2.27891       -1.25680       -2.31994
H         -1.68714       -1.37204        0.63158
