34
2msa1a1eda_130.log	Energy: -988702.6986622
S          1.18629        2.08012        0.03810
O          2.23738        1.13365        0.42117
O          0.32796        2.59975        1.08952
O          0.34440        1.43583       -1.11693
H         -0.67726        1.25283       -0.90662
C          1.96341        3.43281       -0.81764
H          2.63756        3.91711       -0.11052
H          2.51655        3.03274       -1.66699
H          1.18612        4.12237       -1.14604
S         -2.50148       -0.32949       -0.11169
O         -2.04668        0.93437       -0.78287
O         -2.18765       -0.36981        1.32565
O         -2.03580       -1.54191       -0.84166
H         -0.58016       -2.21007       -0.19350
C         -4.27348       -0.28884       -0.28170
H         -4.63936        0.60412        0.22488
H         -4.51389       -0.25912       -1.34425
H         -4.67421       -1.18978        0.18307
N          0.60029       -0.68523        2.33161
H          0.71127       -0.99889        3.28983
H         -0.32937       -0.26797        2.24256
H          1.28456        0.04652        2.14960
H          1.10448       -2.33154       -1.85553
H          1.15585       -0.75640       -1.04318
H          3.45198       -1.69528       -1.23725
H          2.96005       -1.54001        0.44643
H          3.09373       -4.04290       -1.07338
H          3.72074       -3.70540        0.39662
H          0.63351       -3.30983        0.31069
H          0.52460       -1.77093        1.03192
C          1.33713       -1.82366       -0.91469
C          2.76796       -2.09362       -0.47703
N          0.40753       -2.33180        0.12137
N          2.93349       -3.52623       -0.21490
