26
2msa2a_53.log	Energy: -904640.3000882
S          2.33655        0.29374        0.03692
O          2.28044       -1.12594        0.44332
O          2.03957        1.27422        1.06508
O          1.47847        0.51010       -1.24873
H          0.44778        0.58159       -1.08160
C          3.95405        0.57088       -0.63890
H          4.66718        0.42031        0.17200
H          4.12060       -0.14626       -1.44191
H          3.99709        1.59518       -1.00796
S         -1.83556       -0.36928       -0.35089
O         -0.98866        0.71810       -0.94004
O         -1.74972       -0.39747        1.13636
O         -1.53185       -1.70006       -0.94037
H         -0.45947       -2.61614        0.26054
C         -3.50098        0.06771       -0.77762
H         -3.56913        0.10518       -1.86494
H         -4.16072       -0.69982       -0.37246
H         -3.69698        1.04504       -0.32729
N         -2.57445        2.69286        1.00173
H         -2.29693        1.98981        1.68108
H         -2.64323        3.58524        1.47785
H         -1.81465        2.75047        0.32960
N          0.00779       -2.46274        1.17579
H          0.93675       -2.02406        0.99021
H          0.08470       -3.30870        1.73100
H         -0.60660       -1.74345        1.60895
