37
2msa1ma1eda_92.log	Energy: -1013363.0052952
S          2.20698       -0.56067       -0.70689
O          1.59163       -1.62336        0.16412
O          3.18658        0.25162        0.02790
O          1.15476        0.22589       -1.40281
C          3.09177       -1.43647       -1.98147
H          3.85053       -2.05421       -1.50082
H          2.37999       -2.05256       -2.53117
H          3.55322       -0.69916       -2.63858
S         -1.87448       -1.40020        0.21264
O         -2.43724       -0.78754       -0.98830
O         -1.44776       -0.47974        1.27226
O         -0.73033       -2.39270       -0.14312
H          0.25156       -2.00941       -0.02594
C         -3.07492       -2.52807        0.87993
H         -3.95761       -1.94301        1.14003
H         -3.31311       -3.26525        0.11348
H         -2.64723       -3.00261        1.76242
N          1.79264        1.76481        2.19504
H          2.52207        1.43828        1.55706
C          1.36115        0.63715        3.03525
H          2.17152        0.21626        3.64183
H          0.55466        0.96086        3.69892
H          0.97091       -0.15354        2.39021
H          2.18581        2.50775        2.76324
H         -0.97480        3.86419        0.32886
H          0.33043        3.56746       -0.84971
H         -1.89835        3.81788       -1.95470
H         -1.19151        2.22791       -2.24842
H         -3.67328        2.65695       -1.21637
H         -2.83942        1.25620       -1.01127
H          0.48929        2.03401        1.06983
H         -1.05485        1.44450        0.68399
C         -0.58309        3.15975       -0.40896
C         -1.63605        2.86960       -1.47554
N         -0.22795        1.90994        0.29187
N         -2.81268        2.26231       -0.86222
H          0.21186        1.23675       -0.37335
