32
2msa1a1dma_132.log	Energy: -953956.0969742
S          2.13066        1.23603        0.15383
O          3.31905        1.95462        0.60644
O          1.59139        0.22768        1.10418
O          2.30068        0.60255       -1.21163
H          2.17702       -0.86400       -1.13614
C          0.83521        2.44531       -0.08495
H          0.65871        2.93751        0.87270
H          1.17957        3.16951       -0.82370
H         -0.05877        1.92500       -0.43212
S         -2.39529       -0.50581        0.57871
O         -2.02480       -1.91018        0.62947
O         -3.81195       -0.14451        0.60762
O         -1.74725        0.13435       -0.72661
H         -2.46481        0.63697       -1.27260
C         -1.53702        0.35358        1.87313
H         -1.86354       -0.08741        2.81585
H         -0.45944        0.22454        1.72545
H         -1.81397        1.40711        1.82625
N         -3.71472        1.33558       -1.99020
H         -4.44228        1.10485       -1.31564
H         -3.96966        0.92998       -2.88492
H         -3.68200        2.34398       -2.09840
N          2.12173       -1.95369       -1.02209
C          0.74842       -2.31288       -0.59346
C          3.16793       -2.35144       -0.05212
H          2.32064       -2.35919       -1.93486
H          0.57399       -1.84560        0.37302
H          0.03179       -1.90950       -1.30772
H          0.64651       -3.39694       -0.51817
H          2.96482       -1.82144        0.87961
H          3.14177       -3.43200        0.10279
H          4.14042       -2.04350       -0.43739
