35
2msa1ma1dma_266.log	Energy: -978617.3130440
S          0.97432        1.33864        0.09944
O          0.00496        2.44856        0.00252
O          1.12556        0.53425       -1.10942
O          0.62061        0.43753        1.32818
H         -0.33875        0.02722        1.21606
C          2.53875        1.97808        0.61357
H          2.86157        2.67332       -0.16257
H          2.40050        2.49295        1.56394
H          3.22866        1.12616        0.69640
S         -2.15940       -1.48165        0.04129
O         -3.06664       -2.44333        0.64844
O         -1.68152       -0.41786        1.00906
O         -2.68671       -0.80173       -1.18372
H         -2.60535        0.77313       -1.07217
C         -0.68769       -2.34652       -0.47910
H         -0.24474       -2.81811        0.39915
H         -0.99123       -3.10196       -1.20421
H         -0.00085       -1.62795       -0.93068
N         -2.56986        1.82216       -0.87290
H         -1.58787        2.06172       -0.62844
C         -3.46551        2.14110        0.26468
H         -3.39406        3.20258        0.50187
H         -4.48930        1.87640        0.00105
H         -3.13877        1.53690        1.11058
H         -2.82748        2.32803       -1.71707
N          4.21211       -0.80877        0.26960
C          4.47069       -0.63603       -1.15458
C          3.23069       -1.85416        0.53360
H          5.07816       -1.02657        0.75049
H          3.55324       -0.28916       -1.64073
H          5.24369        0.12436       -1.29983
H          4.79396       -1.56322       -1.65696
H          2.27705       -1.56400        0.08415
H          3.51840       -2.83577        0.12026
H          3.07699       -1.95593        1.61075
