42
2msa2eda_255.log	Energy: -1072754.4832148
S          2.55869        0.10711       -0.80877
O          2.56994       -1.21230       -0.10903
O          2.92446        1.23873        0.06220
O          1.27765        0.32577       -1.54488
C          3.82712       -0.03213       -2.05385
H          3.86555        0.90895       -2.60289
H          4.77445       -0.22340       -1.54979
H          3.56789       -0.85712       -2.71729
S         -0.61484       -2.27686        0.72276
O         -1.12085       -0.90058        0.79732
O         -1.42006       -3.31881        1.32793
O          0.82245       -2.35885        1.35122
H          1.50343       -1.81430        0.82659
C         -0.34412       -2.63911       -0.99995
H         -1.32749       -2.67009       -1.47201
H          0.26877       -1.84095       -1.42564
H          0.14829       -3.60863       -1.07359
H          1.32102        2.93059        0.04305
H         -0.19161        3.85252        0.24960
H          1.29084        3.76571        2.31204
H         -0.34460        3.14937        2.59879
H          1.95724        1.40423        2.03276
H          1.09807        1.49326        3.45325
H          0.05999        1.26967       -0.63186
H         -0.35745        1.05871        0.92884
C          0.36132        2.96323        0.56081
C          0.59596        2.94775        2.07237
N         -0.40214        1.75178        0.16295
N          1.05475        1.62155        2.45112
H         -1.40760        1.96502       -0.06160
H         -4.59234        1.73817       -1.89353
H         -2.93275        1.91534       -2.49980
H         -3.62214       -0.48187       -2.26229
H         -2.20954       -0.07712       -1.28515
H         -4.76116       -0.89794       -0.31181
H         -3.30194       -0.81486        0.45977
H         -3.41710        3.30402       -0.52077
H         -3.65103        1.91820        0.33141
C         -3.53269        1.57938       -1.64682
C         -3.28659        0.09135       -1.38835
N         -3.13563        2.33165       -0.44732
N         -3.94485       -0.32297       -0.15180
