41
2msa1dma1tma_31.log	Energy: -1027943.8076487
S          0.08798        1.95067        0.07935
O          0.95611        2.95085        0.68918
O         -0.67107        1.13487        1.10972
O          0.77636        1.02009       -0.86146
H          0.79443       -0.56026       -0.27938
C         -1.16147        2.78731       -0.87876
H         -1.71077        3.45212       -0.21127
H         -0.65051        3.36084       -1.65263
H         -1.82186        2.03978       -1.32266
S         -3.14214       -0.69816       -0.13734
O         -2.23244       -1.82586        0.13388
O         -3.04320       -0.09347       -1.45826
O         -3.00765        0.37360        0.98871
H         -2.01462        0.74666        1.03891
C         -4.80280       -1.25246        0.14944
H         -5.01493       -2.01580       -0.59959
H         -4.86278       -1.66583        1.15557
H         -5.47114       -0.39994        0.03141
N          0.56560       -1.51845        0.08346
C          1.00434       -1.62645        1.49195
C          1.14201       -2.54082       -0.81147
H         -0.46769       -1.58090        0.05720
H          2.09284       -1.58003        1.50963
H          0.57823       -0.78373        2.03681
H          0.64544       -2.57015        1.90656
H          2.22621       -2.42988       -0.79039
H          0.84595       -3.53260       -0.46500
H          0.76435       -2.37430       -1.82048
N          3.77061       -0.54793       -0.09334
C          3.81802        0.55224        0.86247
H          2.99627        1.24749        0.67723
H          3.72201        0.16390        1.88220
H          4.76957        1.11212        0.80071
C          4.84668       -1.49290        0.15092
H          4.76373       -1.90288        1.16327
H          4.78645       -2.32305       -0.56143
H          5.84699       -1.03101        0.04954
C          3.81825       -0.04165       -1.45870
H          3.72873       -0.87260       -2.16750
H          2.98482        0.64597       -1.61835
H          4.76642        0.48617       -1.67272
