37
2msa1ma1eda_449.log	Energy: -1013351.6285234
S         -2.52265       -0.67672       -0.39581
O         -1.58724       -1.77495       -0.69228
O         -2.62828        0.37286       -1.39979
O         -2.21690       -0.07461        1.01404
H         -1.29485        0.43066        1.02711
C         -4.11758       -1.38936       -0.08917
H         -4.01898       -2.13294        0.70098
H         -4.79842       -0.59009        0.20196
H         -4.44005       -1.85271       -1.02191
S          0.53907        2.18332        0.24138
O          1.43489        3.03501        1.00967
O          0.00775        1.01373        1.05285
O          1.10964        1.65262       -1.03388
H          1.04348        0.02375       -0.98425
C         -0.89994        3.12974       -0.21763
H         -1.36608        3.49851        0.69663
H         -0.55969        3.96221       -0.83430
H         -1.57818        2.48337       -0.77791
N          1.61677       -1.31134        2.38582
H          1.24419       -0.38582        2.19763
C          0.60702       -2.35630        2.33558
H          0.08576       -2.47860        1.37021
H          1.06228       -3.31700        2.59468
H         -0.16183       -2.14880        3.08488
H          2.43390       -1.48856        1.81292
H          2.14375       -2.66654       -1.66253
H          1.76072       -1.36906       -2.81593
H          4.18155       -1.30317       -2.27849
H          3.36700        0.14023       -1.66421
H          4.44331       -2.04305       -0.08019
H          4.38714       -0.43835        0.24585
H          0.17561       -1.42698       -0.91605
H          1.45908       -1.14493        0.11424
C          2.10513       -1.58269       -1.80188
C          3.46366       -0.94157       -1.53173
N          1.12360       -1.02168       -0.85063
N          3.86804       -1.21182       -0.15183
