40
2msa1dma1eda_125.log	Energy: -1038023.5085833
S          0.76614       -2.25372       -0.33399
O          1.49929       -3.05653       -1.30469
O          0.29350       -0.92989       -0.92076
O          1.48281       -1.97719        0.93817
H          1.62640       -0.29862        1.21583
C         -0.72709       -3.12506        0.10675
H         -1.27782       -3.33863       -0.81024
H         -0.43012       -4.05286        0.59639
H         -1.31170       -2.49427        0.77871
S         -2.58050        0.52082        0.09697
O         -2.19748        1.93193        0.14958
O         -2.27235       -0.28980        1.27484
O         -2.01990       -0.16055       -1.19237
H         -1.02974       -0.52796       -1.06505
C         -4.32320        0.43534       -0.23713
H         -4.83037        0.91509        0.60041
H         -4.52064        0.96896       -1.16643
H         -4.60859       -0.61304       -0.31684
N          1.62977        0.66388        1.61826
C          2.99911        0.99643        2.04867
C          0.62433        0.70093        2.69836
H          1.34094        1.34098        0.85543
H          3.34426        0.25390        2.77034
H          3.62898        0.99225        1.15915
H          3.00285        1.98740        2.50834
H          0.91483        0.00082        3.48361
H          0.56666        1.71330        3.10446
H         -0.34376        0.40834        2.28915
H          0.22766        1.48981       -1.81490
H          0.49052        3.18710       -2.21494
H          2.32823        1.94274       -3.05804
H          2.92989        2.91185       -1.70887
H          2.15171        0.09719       -1.39994
H          3.69374        0.59709       -1.61336
H          1.08558        3.56005        0.06313
H         -0.30438        2.68104        0.06779
C          0.84927        2.36029       -1.58640
C          2.29361        2.05272       -1.96265
N          0.69082        2.64922       -0.15439
N          2.78960        0.87778       -1.24893
