32
2msa1a1dma_129.log	Energy: -953954.9020518
S          1.00348        1.46419        0.22961
O          2.37465        1.78389       -0.15343
O          0.27475        0.64676       -0.82215
O          0.15249        2.65787        0.54688
H         -1.10014        2.65246       -0.33818
C          1.04312        0.45637        1.69415
H          1.64667       -0.42501        1.45372
H          1.51546        1.04798        2.47940
H          0.01960        0.19394        1.96763
S         -2.43345       -0.95919        0.17134
O         -3.10357        0.05938       -0.66114
O         -2.23713       -0.61467        1.57093
O         -1.09302       -1.39308       -0.50413
H         -0.45264       -0.56755       -0.61507
C         -3.35416       -2.46844        0.03945
H         -3.46488       -2.71620       -1.01550
H         -2.80831       -3.24506        0.57462
H         -4.32424       -2.28814        0.50326
N         -1.90092        2.53523       -1.05705
H         -1.46368        2.45192       -1.97269
H         -2.54193        3.32338       -1.04120
H         -2.40431        1.64441       -0.86244
N          3.35227       -1.17257       -0.08882
C          2.84518       -1.72985       -1.33170
C          4.59945       -1.78054        0.33712
H          3.46558       -0.16779       -0.19558
H          2.54432       -2.77191       -1.17204
H          1.96651       -1.16314       -1.64911
H          3.58564       -1.71534       -2.15160
H          4.43014       -2.83730        0.57415
H          5.39672       -1.73419       -0.42658
H          4.96264       -1.28763        1.24331
