37
2msa1ma1eda_43.log	Energy: -1013374.4028689
S          2.83480        0.59123        0.07963
O          3.20400       -0.49280        1.00534
O          2.21548        1.77800        0.73532
O          1.96891        0.10032       -1.04310
C          4.34006        1.18653       -0.66863
H          4.97734        1.57647        0.12532
H          4.82353        0.34935       -1.17253
H          4.08562        1.97125       -1.38090
S         -2.15134       -1.32642       -0.10580
O         -2.47897       -0.29429       -1.11324
O         -1.23718       -0.78893        0.95392
O         -1.62660       -2.59260       -0.67683
C         -3.67406       -1.74134        0.72425
H         -4.06415       -0.83328        1.18604
H         -4.37118       -2.12939       -0.01894
H         -3.45851       -2.49509        1.48146
N          1.02938       -2.28127       -0.02382
H          0.11588       -2.59218       -0.41541
H          1.35785       -1.44315       -0.55695
C          2.06749       -3.32982        0.02072
H          2.96736       -2.89694        0.45677
H          1.71314       -4.16725        0.62187
H          2.26692       -3.66856       -0.99577
H          0.80635       -1.91582        0.90491
H         -1.16937        3.19046        1.39112
H         -0.34546        3.80070       -0.06195
H         -2.74114        4.21018       -0.21252
H         -2.24753        3.07721       -1.47123
H         -4.31394        2.58645        0.00812
H         -3.28304        1.34589       -0.29793
H          0.57532        1.73353        0.42444
H         -0.90683        0.94191        0.60286
C         -1.05096        3.05531        0.31457
C         -2.39683        3.18543       -0.38380
N         -0.42813        1.72391        0.11027
N         -3.37062        2.25184        0.16209
H         -0.41710        1.44566       -0.87364
