40
2msa1dma1eda_392.log	Energy: -1038014.0904882
S          0.40459       -1.89819        0.08852
O         -0.22801       -1.08004       -0.99684
O          0.50520       -1.15206        1.35956
O          1.71263       -2.45612       -0.35261
H          2.77003       -1.15259       -0.32480
C         -0.68409       -3.28252        0.33111
H         -1.64008       -2.89760        0.68699
H         -0.80975       -3.78880       -0.62571
H         -0.23278       -3.94361        1.07083
S          0.18062        2.33180       -0.10568
O         -0.15209        3.70167       -0.42533
O          1.58779        1.91573       -0.23833
O         -0.71774        1.40271       -1.00384
H         -0.46016        0.41306       -0.96205
C         -0.33390        1.95127        1.55169
H          0.24852        2.58747        2.21950
H         -1.39756        2.17920        1.62971
H         -0.13799        0.89121        1.73340
N          3.26844       -0.24385       -0.14852
C          4.32075       -0.02075       -1.16015
C          3.73821       -0.24186        1.25480
H          2.54599        0.49796       -0.24010
H          5.07167       -0.80784       -1.07895
H          3.86348       -0.04761       -2.14898
H          4.78064        0.95445       -0.99458
H          4.49141       -1.02088        1.38137
H          4.16237        0.73540        1.48948
H          2.87660       -0.44968        1.89048
H         -5.03993       -1.08299       -0.05493
H         -3.75287       -2.06075        0.64387
H         -3.95080        0.10280        1.78182
H         -2.36660       -0.07363        1.01662
H         -3.81731        2.09444        0.69419
H         -3.00568        1.50009       -0.59783
H         -3.71810       -0.62121       -1.90977
H         -2.37836       -1.32118       -1.27671
C         -3.95218       -1.16142        0.04434
C         -3.44265        0.06293        0.81085
N         -3.39499       -1.35401       -1.28711
N         -3.73134        1.29407        0.08050
