42
2msa2eda_210.log	Energy: -1072754.6209280
S         -2.74124        0.25105        0.65478
O         -3.00149        1.12534       -0.48294
O         -1.58473        0.59583        1.49344
O         -2.68498       -1.24625        0.23156
C         -4.17868        0.20939        1.69635
H         -4.31781        1.21815        2.08589
H         -5.03088       -0.09265        1.08813
H         -3.99888       -0.49967        2.50373
S          0.60845       -2.20726       -0.72206
O          0.63425       -2.55418        0.70598
O          1.60611       -1.16493       -1.08723
O         -0.76314       -1.83362       -1.21224
H         -1.84407       -1.49527       -0.35267
C          1.03720       -3.65924       -1.66258
H          2.04789       -3.95691       -1.38261
H          0.32082       -4.44282       -1.41559
H          0.98582       -3.40869       -2.72207
H          1.89061        0.86148        2.98799
H          1.53358       -0.80973        2.48159
H          3.95485       -0.54650        2.64442
H          3.47043       -0.80013        0.96392
H          4.29792        1.76065        2.12222
H          4.89647        0.99100        0.81034
H          0.20656        0.63552        1.20316
H          1.48384        1.61158        0.68493
C          1.98561        0.13584        2.17448
C          3.44115       -0.08260        1.78984
N          1.22070        0.63955        1.01516
N          4.04939        1.16758        1.33721
H          1.38283        0.01106        0.20134
H          1.77532        3.10632       -2.52557
H          2.17656        1.54265       -1.78903
H         -0.00029        1.45645       -2.95956
H         -0.18167        1.12557       -1.25402
H         -1.04380        3.53029       -2.62005
H         -1.77452        2.65002       -1.44009
H          2.48712        3.46561       -0.26805
H          0.84622        3.69313       -0.31703
C          1.49404        2.39785       -1.73171
C          0.06255        1.91905       -1.96563
N          1.59331        3.00495       -0.39753
N         -0.88336        3.01551       -1.76169
