28
2msa1dma_18.log	Energy: -918469.5658830
S          1.71739       -1.01520       -0.04291
O          0.68162       -1.81500       -0.74741
O          1.36072       -0.66163        1.34276
O          2.14254        0.18552       -0.83574
H          1.57116        1.53611       -0.33837
C          3.15245       -2.07049        0.00408
H          2.88771       -2.97366        0.55414
H          3.42884       -2.31162       -1.02223
H          3.95649       -1.53344        0.50755
S         -2.34452       -0.26814       -0.06452
O         -3.77223       -0.13862       -0.26756
O         -1.51654        0.94159       -0.10165
O         -1.81143       -1.29816       -1.13333
H         -0.81625       -1.44311       -1.03228
C         -2.02345       -1.07954        1.48738
H         -2.42880       -0.43782        2.27096
H         -2.53445       -2.04217        1.47794
H         -0.94227       -1.19365        1.60111
N          1.33287        2.53625       -0.02900
C          0.76468        2.50348        1.34333
C          0.45017        3.16234       -1.04477
H          2.22935        3.02095       -0.01145
H         -0.19327        1.98808        1.28759
H          1.43925        1.93294        1.98098
H          0.63975        3.52504        1.70770
H         -0.47665        2.58973       -1.07925
H          0.25131        4.19915       -0.76720
H          0.95130        3.11882       -2.01202
