32
2msa2ma_184.log	Energy: -953956.8930766
S          2.72642       -0.44127        0.40195
O          4.15078       -0.62958        0.17201
O          1.93545       -0.25131       -0.87655
O          2.38280        0.67591        1.33936
H          1.38795        1.70399        0.69190
C          2.07360       -1.92296        1.14978
H          2.27828       -2.75626        0.47658
H          2.59014       -2.06544        2.09935
H          1.00079       -1.79496        1.30522
S         -1.35217       -0.56986       -0.63157
O         -1.35573        0.88621       -0.88016
O         -1.22317       -0.96935        0.76562
O         -0.24807       -1.24852       -1.50912
H          0.69824       -0.88255       -1.24811
C         -2.81656       -1.26179       -1.33623
H         -3.65778       -0.86747       -0.74996
H         -2.86950       -0.96000       -2.38197
H         -2.74772       -2.34563       -1.24140
N         -4.93649       -0.01525        0.88692
H         -5.83537        0.37754        0.62852
C         -4.07310        1.00719        1.48372
H         -4.50485        1.50739        2.36216
H         -3.12754        0.54407        1.77602
H         -3.84384        1.76512        0.72986
H         -5.11924       -0.75764        1.55378
N          0.76748        2.37936        0.13946
H         -0.05881        1.84114       -0.19064
C          1.52853        2.91300       -1.01533
H          0.89090        3.56894       -1.60813
H          2.39994        3.45512       -0.64872
H          1.85466        2.05841       -1.60758
H          0.44766        3.11790        0.76159
