38
2msa2dma_152.log	Energy: -1003280.8203706
S          0.35217       -1.87734       -0.42518
O         -0.77426       -2.78307       -0.69779
O          0.28687       -1.17484        0.85379
O          0.44106       -0.85916       -1.60804
H          0.50940        0.13025       -1.28333
C          1.88240       -2.75586       -0.54633
H          1.88341       -3.52076        0.23080
H          1.94524       -3.20392       -1.53794
H          2.65937       -1.99902       -0.37896
S         -0.62396        2.08773       -0.14520
O          0.58482        1.51318       -0.83630
O         -0.49519        2.17134        1.30813
O         -1.86678        1.39218       -0.60824
H         -2.31338       -0.02746       -0.02974
C         -0.74985        3.74539       -0.78886
H          0.16386        4.27697       -0.52234
H         -0.86446        3.68788       -1.87098
H         -1.61750        4.21847       -0.32867
N          3.12461        0.14484        0.35441
C          4.18804        0.90728       -0.27702
C          3.35957       -0.09003        1.76996
H          2.24712        0.64781        0.24419
H          5.11716        0.32488       -0.26895
H          3.92475        1.11028       -1.31856
H          4.39276        1.87041        0.22287
H          4.22881       -0.74734        1.89659
H          3.55265        0.83542        2.33954
H          2.48457       -0.58342        2.20000
N         -2.74253       -0.90165        0.39185
C         -4.10314       -1.06467       -0.15788
C         -2.68129       -0.75044        1.86385
H         -2.15070       -1.69350        0.09147
H         -4.68718       -0.17415        0.07754
H         -4.02984       -1.17882       -1.23929
H         -4.57283       -1.94752        0.27894
H         -3.24912        0.13714        2.14526
H         -3.10057       -1.63901        2.33884
H         -1.63573       -0.62031        2.14032
