38
2msa1ma1tma_104.log	Energy: -1003277.9534995
S         -2.67950       -0.18486        0.52630
O         -2.22619        1.16950        0.85284
O         -2.24794       -1.28538        1.36909
O         -2.38234       -0.47307       -0.99477
H         -1.49465       -0.96664       -1.17389
C         -4.45784       -0.15312        0.46216
H         -4.80687        0.09147        1.46591
H         -4.76853        0.60971       -0.25107
H         -4.80876       -1.13956        0.16052
S          1.03909       -1.27170       -0.90831
O          2.06011       -0.66588       -1.77668
O         -0.22593       -1.61808       -1.62400
O          0.74086       -0.41367        0.29021
H          0.78658        1.12603       -0.03504
C          1.67468       -2.79874       -0.25841
H          1.94975       -3.43093       -1.10292
H          2.53396       -2.56847        0.37501
H          0.88250       -3.25952        0.33235
N          2.88679       -0.98803        2.33505
H          1.91091       -0.86422        2.07824
C          3.70234        0.04043        1.70560
H          3.45188        1.07586        1.99922
H          4.75749       -0.12431        1.94360
H          3.59483       -0.03735        0.61907
H          2.96129       -0.95345        3.34490
N          0.81348        2.14118       -0.35933
C          2.19829        2.41380       -0.81304
H          2.86930        2.34408        0.04355
H          2.47091        1.65306       -1.54636
H          2.24460        3.41648       -1.24484
C         -0.15283        2.22548       -1.48459
H          0.15062        1.50956       -2.24998
H         -1.14157        1.96757       -1.10584
H         -0.14261        3.24068       -1.88880
C          0.40943        2.98703        0.78798
H         -0.57903        2.66480        1.11623
H          1.13217        2.84667        1.59305
H          0.39697        4.03484        0.47735
