32
2msa2ma_182.log	Energy: -953958.9504291
S         -2.11310       -1.21101       -0.19925
O         -3.17536       -2.16179       -0.43954
O         -2.46631        0.22035       -0.20742
O         -0.98087       -1.47865       -1.25081
H         -0.23288       -0.77638       -1.25584
C         -1.33413       -1.55310        1.36137
H         -2.08821       -1.40246        2.13515
H         -1.00316       -2.59200        1.34659
H         -0.49456       -0.86239        1.47885
S          1.43071        1.08343       -0.29956
O          0.96927        0.12841       -1.35378
O          0.87859        0.75784        1.03465
O          1.14479        2.49891       -0.68919
H         -0.43489        2.75459       -0.44247
C          3.19571        0.92067       -0.23431
H          3.42724       -0.12317        0.00911
H          3.59074        1.19045       -1.21411
H          3.56362        1.60397        0.53164
N         -1.43651        2.74465       -0.08760
H         -2.00465        3.39648       -0.62334
C         -1.43997        3.04580        1.36410
H         -2.44912        2.93326        1.75988
H         -0.76108        2.33482        1.83614
H         -1.07758        4.06131        1.52238
H         -1.80102        1.78110       -0.24101
N          3.45284       -2.38351        0.36643
H          3.67157       -2.87404       -0.49393
C          2.05183       -2.58747        0.73545
H          1.78598       -3.63225        0.95481
H          1.82123       -1.97542        1.61197
H          1.41579       -2.23508       -0.07980
H          4.07340       -2.74542        1.08228
