34
2msa1a1eda_266.log	Energy: -988694.0199051
S         -1.39797       -1.75068       -0.16691
O         -0.81586       -1.96845       -1.49798
O         -2.36164       -0.60491       -0.10692
O         -0.37241       -1.63133        0.91109
C         -2.37388       -3.19369        0.22918
H         -2.82046       -3.05146        1.21331
H         -3.14641       -3.29737       -0.53321
H         -1.71234       -4.06050        0.22475
S          2.62735        0.21331       -0.27563
O          1.57597        1.09316       -0.79109
O          3.00638        0.30068        1.11913
O          3.94982        0.55649       -1.15073
H          3.69667        1.17032       -1.85505
C          2.31164       -1.46889       -0.71125
H          1.47262       -1.79039       -0.08455
H          2.02185       -1.50986       -1.76081
H          3.22157       -2.03371       -0.50768
N          0.38890        0.41133        2.94242
H          0.09555       -0.49762        2.57742
H          0.21520        0.43704        3.94087
H          1.39293        0.47534        2.78959
H         -2.23210        3.00135        1.30827
H         -0.67883        3.61084        0.68025
H         -2.37796        4.05752       -0.97069
H         -1.33673        2.77901       -1.60365
H         -3.83261        2.43142       -1.77434
H         -3.10324        1.19941       -0.97683
H         -0.47464        1.33359        1.67414
H         -1.54263        0.75401        0.50406
C         -1.46932        2.86936        0.53803
C         -2.10225        3.00610       -0.84147
N         -0.86772        1.52812        0.71402
N         -3.30769        2.19698       -0.94057
H         -0.07818        1.39155        0.06871
