40
2msa1dma1eda_551.log	Energy: -1038003.9996842
S          1.60384       -1.29134        0.80635
O          1.69803       -2.69459        0.41712
O          0.85081       -0.44356       -0.19460
O          2.93264       -0.62106        1.03856
H          3.33034        0.20791       -0.14360
C          0.72647       -1.17766        2.34504
H         -0.26150       -1.61241        2.18782
H          1.29492       -1.74174        3.08489
H          0.62760       -0.12805        2.62839
S         -2.55825       -0.81876       -0.53218
O         -3.22856        0.41793       -0.90774
O         -2.21760       -1.00885        0.87638
O         -1.27006       -1.02924       -1.41507
H         -0.41043       -0.85236       -0.87829
C         -3.54802       -2.18862       -1.08222
H         -4.49937       -2.12731       -0.55299
H         -3.69968       -2.09008       -2.15696
H         -3.02374       -3.11252       -0.84040
N          3.56825        0.74915       -1.05997
C          2.68809        1.93866       -1.15082
C          3.40044       -0.20173       -2.18644
H          4.54305        1.03773       -0.99348
H          1.65832        1.58267       -1.11353
H          2.87793        2.58449       -0.29317
H          2.88340        2.47464       -2.08152
H          2.35899       -0.52462       -2.19121
H          3.65736        0.28805       -3.12730
H          4.04257       -1.06549       -2.01374
H         -0.00244        3.45505        1.74714
H          0.81022        1.99316        1.17023
H         -0.04661        3.43845       -0.66774
H         -0.69018        1.78706       -0.71580
H         -2.27988        3.74971       -0.99206
H         -2.73405        2.57521        0.02072
H         -1.84736        2.20296        2.37263
H         -1.31060        0.82640        1.67760
C         -0.16566        2.48886        1.25667
C         -0.71483        2.73488       -0.15215
N         -1.00839        1.68563        2.13197
N         -2.05262        3.31972       -0.10228
