43
2msa1eda1tma_188.log	Energy: -1062674.4368676
S          2.26806        1.56829       -0.41497
O          1.36745        1.95022        0.69701
O          1.57546        0.88501       -1.52701
O          3.43274        0.74884        0.07190
H          2.99554       -0.78704       -0.13073
C          2.97133        3.07709       -1.04997
H          3.49690        3.57653       -0.23601
H          3.65769        2.82087       -1.85688
H          2.15441        3.69747       -1.41916
S         -1.27721       -1.91899       -0.85851
O         -2.38905       -2.76971       -1.22403
O          0.08857       -2.41704       -1.12119
O         -1.38498       -1.62225        0.68773
H         -0.49745       -1.27481        1.11232
C         -1.43794       -0.33125       -1.62765
H         -1.53741       -0.51646       -2.69839
H         -2.32476        0.16697       -1.21929
H         -0.52852        0.24360       -1.42932
H          1.54808       -3.10060        1.07004
H          3.25820       -2.81590        1.47768
H          1.85278       -1.82237        3.16006
H          2.75853       -0.56313        2.30798
H          0.21840       -0.36585        2.79143
H          0.86300        0.30430        1.46587
H          3.09272       -2.35865       -0.77148
H          1.61531       -1.65488       -0.66033
C          2.32520       -2.33909        1.16867
C          1.94503       -1.29056        2.20911
N          2.53431       -1.74565       -0.18129
N          0.67474       -0.60485        1.91481
N         -3.35368        1.51446        0.28708
C         -2.13064        1.84580        0.99800
H         -1.60025        0.92353        1.24691
H         -1.47032        2.44823        0.36876
H         -2.32387        2.40078        1.93607
C         -4.07443        2.70889       -0.11219
H         -3.43327        3.33688       -0.73810
H         -4.95815        2.43262       -0.69523
H         -4.40740        3.31224        0.75480
C         -4.19063        0.61829        1.06695
H         -5.08132        0.34846        0.49173
H         -3.63870       -0.29930        1.28926
H         -4.52029        1.07430        2.02083
