31
2msa1tma_06.log	Energy: -943133.3006316
S          1.31057       -1.51778        0.02550
O         -0.06550       -2.07527        0.18644
O          1.88673       -0.99423        1.27714
O          1.36789       -0.52173       -1.08505
C          2.31726       -2.89668       -0.48836
H          2.27973       -3.65021        0.29844
H          1.90986       -3.29109       -1.41929
H          3.33765       -2.54066       -0.63158
N          1.50676        1.95629       -0.03261
C          1.11183        2.11266        1.39184
H          0.02514        2.13153        1.44513
H          1.49126        1.24783        1.93688
H          1.54102        3.04249        1.77312
C          2.98300        1.91288       -0.17400
H          3.35447        1.09489        0.44394
H          3.22806        1.71982       -1.21809
H          3.40394        2.86761        0.14931
C          0.88491        2.98098       -0.90573
H          1.17559        2.78235       -1.93782
H         -0.19691        2.89677       -0.80835
H          1.23317        3.97031       -0.59975
H          1.18423        1.01429       -0.37369
S         -2.52083        0.17126       -0.11216
O         -3.78098        0.67241       -0.62044
O         -1.40092        1.10633        0.02640
O         -2.09073       -1.04185       -1.02261
H         -1.23743       -1.45241       -0.66251
C         -2.76500       -0.59769        1.47645
H         -3.04277        0.18644        2.18148
H         -3.56644       -1.32980        1.37799
H         -1.82768       -1.07815        1.76350
