43
2msa1eda1tma_276.log	Energy: -1062667.1688082
S          1.44997       -1.09018        0.81163
O          0.83581       -1.03250       -0.52825
O          1.71671        0.27349        1.37359
O          2.71924       -1.88811        0.84094
H          3.88452       -0.79630        0.58622
C          0.30655       -1.89221        1.90804
H         -0.57986       -1.25703        1.95786
H          0.07475       -2.87345        1.49322
H          0.77976       -1.98232        2.88562
S         -1.35489        1.82124        0.45159
O         -2.12606        3.04378        0.55198
O         -1.58893        0.73890        1.40636
O          0.18501        2.23169        0.52221
H          0.73781        1.47859        0.88790
C         -1.51233        1.16199       -1.18953
H         -2.53220        0.77019       -1.28389
H         -1.32092        1.96896       -1.89730
H         -0.78944        0.34937       -1.28753
H          5.58357        0.70572       -1.37338
H          5.42958       -1.06609       -1.22669
H          3.97451       -0.06306       -3.07882
H          3.06138       -0.97077       -1.86761
H          2.90008        1.85141       -2.33840
H          1.88914        0.85075       -1.48954
H          5.19164        0.25490        0.92091
H          3.75330        0.82754        0.26335
C          4.90080       -0.11510       -1.13945
C          3.65247       -0.06534       -2.03187
N          4.44254        0.05365        0.26378
N          2.85759        1.09889       -1.66475
N         -4.03590       -0.90904       -0.80351
C         -4.70021       -0.49661        0.42323
H         -3.96508       -0.07916        1.11605
H         -5.44225        0.27551        0.19964
H         -5.21646       -1.34055        0.92131
C         -4.98413       -1.42224       -1.77407
H         -5.73789       -0.66073       -1.99544
H         -4.46621       -1.67195       -2.70540
H         -5.50656       -2.33087       -1.41564
C         -2.98271       -1.87258       -0.53045
H         -2.45460       -2.12105       -1.45633
H         -2.26105       -1.43622        0.16492
H         -3.37528       -2.81030       -0.09110
