31
2msa1tma_07.log	Energy: -943132.5521006
S          1.60643       -1.34488        0.08131
O          2.54933       -0.68669        0.99947
O          1.09143       -0.41825       -0.97309
O          0.47979       -2.04452        0.77039
C          2.49866       -2.62249       -0.78374
H          3.33996       -2.16225       -1.30213
H          2.84949       -3.34371       -0.04531
H          1.81701       -3.09458       -1.49128
N          1.09135        2.08164       -0.03639
C          2.45788        2.34101       -0.55091
H          3.13520        1.62433       -0.08499
H          2.45875        2.19287       -1.63089
H          2.74574        3.36628       -0.30672
C          0.07181        2.93789       -0.68757
H          0.09609        2.75444       -1.76209
H         -0.90546        2.65830       -0.29726
H          0.29550        3.98627       -0.47540
C          1.04873        2.17505        1.44640
H          0.03989        1.93291        1.77479
H          1.75045        1.44241        1.84708
H          1.32553        3.19055        1.74078
H          0.89147        1.08140       -0.31240
S         -2.35582       -0.14783       -0.10569
O         -2.50191        0.34646       -1.46502
O         -1.56154        0.66646        0.81976
O         -1.84829       -1.62875       -0.09016
H         -0.88201       -1.74579        0.26328
C         -3.97903       -0.36952        0.58954
H         -4.45838        0.60948        0.61567
H         -4.53548       -1.05030       -0.05463
H         -3.87189       -0.78007        1.59305
