37
2msa1ma1eda_113.log	Energy: -1013363.1301005
S         -2.30980       -0.10450       -0.34720
O         -2.03399        0.35951        1.02966
O         -2.27439       -1.57488       -0.51258
O         -1.41124        0.55831       -1.35573
C         -3.96408        0.42105       -0.75243
H         -4.65021       -0.06960       -0.06186
H         -4.01524        1.50439       -0.64138
H         -4.17193        0.12661       -1.78099
S          1.20897        2.20681        0.12908
O          2.28355        3.16600       -0.01410
O          1.52760        0.77532        0.02214
O          0.09609        2.55749       -0.92541
H         -0.54168        1.77173       -1.07392
C          0.38899        2.45465        1.68748
H          1.09434        2.17896        2.47261
H          0.12742        3.51021        1.76278
H         -0.50196        1.82122        1.70337
N          0.13703       -1.62217        1.83542
H          0.94833       -1.45654        2.42088
C         -0.60916       -2.80889        2.26389
H         -0.98722       -2.73991        3.29092
H         -1.45998       -2.93713        1.59008
H          0.03414       -3.69022        2.18876
H         -0.46895       -0.80159        1.86635
H          1.52965       -3.55385       -0.91421
H          1.39149       -2.73113       -2.48771
H          3.69762       -2.66140       -1.60950
H          3.02771       -1.03789       -1.80475
H          4.21598       -1.72968        0.39008
H          2.85622       -0.83141        0.48459
H         -0.43595       -2.01962       -1.09897
H          0.51696       -1.71374        0.23311
C          1.58555       -2.58763       -1.42113
C          2.95858       -1.96086       -1.20895
N          0.52087       -1.73225       -0.85515
N          3.21924       -1.74141        0.20995
H          0.60638       -0.74970       -1.13686
