38
2msa2dma_19.log	Energy: -1003297.8500991
S          2.32958       -0.07705       -0.66648
O          3.78195       -0.14490       -0.76646
O          1.74166        1.26343       -0.99291
O          1.79078       -0.55019        0.65698
H          0.95505        1.90683        0.27341
C          1.64397       -1.18932       -1.88842
H          1.92568       -0.81510       -2.87327
H          2.08508       -2.17488       -1.72985
H          0.55553       -1.21628       -1.78484
S         -2.32866        0.07724       -0.66796
O         -3.78095        0.14575       -0.76848
O         -1.74106       -1.26319       -0.99512
O         -1.79019        0.54903        0.65619
H         -0.95527       -1.90676        0.27178
C         -1.64206        1.19033       -1.88861
H         -1.92359        0.81718       -2.87391
H         -2.08270        2.17598       -1.72928
H         -0.55363        1.21661       -1.78461
N         -0.28693       -2.20969        1.03133
C          0.18173       -3.58188        0.76770
C         -0.91765       -2.02181        2.35248
H          0.52155       -1.54587        0.92214
H         -0.66248       -4.27178        0.81446
H          0.62228       -3.61646       -0.22874
H          0.93371       -3.86029        1.50782
H         -1.74261       -2.72825        2.46157
H         -0.17649       -2.19203        3.13584
H         -1.30604       -1.00405        2.39482
N          0.28526        2.20985        1.03165
C         -0.18041        3.58318        0.76880
C          0.91236        2.01902        2.35409
H         -0.52384        1.54710        0.91968
H          0.66485        4.27159        0.81868
H         -0.61836        3.62002       -0.22872
H         -0.93375        3.86183        1.50746
H          1.73777        2.72442        2.46656
H          0.16938        2.18855        3.13587
H          1.29969        1.00082        2.39561
