40
2msa1dma1eda_450.log	Energy: -1038013.0854879
S         -0.92014       -1.95087       -0.42566
O         -0.04277       -3.05743       -0.80541
O         -1.26560       -0.96539       -1.44173
O         -0.22956       -1.24049        0.80658
H         -0.15126       -0.20316        0.70363
C         -2.41053       -2.57710        0.30040
H         -2.96410       -3.08960       -0.48737
H         -2.14120       -3.26698        1.09995
H         -2.94767       -1.69905        0.67636
S          0.74285        1.87184       -0.55683
O          1.47000        3.08349       -0.19454
O          0.11805        1.20715        0.65572
O          1.54380        0.88095       -1.33435
H          1.98421       -0.59093       -0.80397
C         -0.63252        2.30694       -1.60076
H         -1.28087        2.98229       -1.04099
H         -0.23605        2.80201       -2.48746
H         -1.14861        1.38277       -1.86473
N         -3.06032        0.65812        0.83182
C         -3.58164        1.27126        2.04288
C         -3.86793        0.94698       -0.34206
H         -2.10848        0.98206        0.68063
H         -4.54706        0.81896        2.29686
H         -2.89250        1.08788        2.87118
H         -3.73451        2.36077        1.95214
H         -4.86379        0.50586       -0.21693
H         -4.00523        2.02702       -0.52881
H         -3.40460        0.49230       -1.22131
H          4.23508       -1.98178        0.55920
H          4.36280       -0.93420       -0.88036
H          4.83219        0.25956        1.35718
H          3.58758        1.00923        0.35675
H          3.23348       -0.08611        2.94034
H          2.11261        0.66990        1.99530
H          2.22393       -2.27418       -0.78264
H          1.87678       -1.44773        0.61229
C          3.81664       -1.11122        0.04808
C          3.82183        0.12640        0.95852
N          2.40137       -1.40657       -0.27566
N          2.82859       -0.04983        2.01527
