42
2msa2eda_477.log	Energy: -1072746.4610836
S         -2.37933       -1.26116       -0.69182
O         -3.34884       -1.82729       -1.60258
O         -2.10981        0.18376       -0.78537
O         -1.01959       -2.04058       -0.89191
H         -0.38254       -1.95651       -0.09252
C         -2.82206       -1.60928        0.99519
H         -3.75465       -1.08036        1.19493
H         -2.95986       -2.68610        1.09199
H         -2.02498       -1.25282        1.65016
S          1.74193       -1.03368        1.19965
O          0.48059       -1.84233        1.14112
O          1.43904        0.41598        0.98080
O          2.80416       -1.53370        0.31642
H          0.67986       -0.26346       -1.95504
C          2.29942       -1.17349        2.88261
H          1.51610       -0.78938        3.53616
H          2.49282       -2.22735        3.08282
H          3.21303       -0.58730        2.98165
H          0.45351        2.86306        0.38379
H         -0.17434        4.47871        0.74455
H         -0.18439        3.09096        2.74149
H         -1.84213        3.49827        2.28636
H         -2.07430        1.30279        1.38696
H         -0.51519        0.94480        1.73256
H         -1.24168        3.75202       -1.25743
H         -1.84892        2.40238       -0.51997
C         -0.46279        3.42619        0.63896
C         -0.96396        2.91315        1.99236
N         -1.51337        3.34801       -0.36989
N         -1.31550        1.49743        2.03193
H          3.17665        1.02278       -1.09429
H          3.54664        1.49697       -2.75704
H          1.41098        2.56622       -1.77244
H          1.14518        1.67536       -3.29640
H          0.74584        0.62746       -0.54617
H         -0.48968        0.89274       -1.64512
H          3.26281       -0.69829       -3.34648
H          3.02271       -1.07909       -1.74704
C          2.84236        0.93820       -2.13320
C          1.45511        1.58647       -2.25240
N          2.74423       -0.46774       -2.51068
N          0.50924        0.67791       -1.56817
