42
2msa2eda_323.log	Energy: -1072753.5098974
S          0.32750        2.25730        0.02436
O          1.38638        1.87667       -0.96725
O          0.68753        1.93058        1.40967
O         -1.00178        1.70835       -0.37229
C          0.18834        4.02853       -0.11845
H         -0.06339        4.27093       -1.15084
H         -0.59473        4.36171        0.56281
H          1.14935        4.46341        0.15664
S          2.89916       -1.17735       -0.19312
O          1.70774       -1.61774       -0.93660
O          2.86110       -1.36182        1.24971
O          3.26604        0.28829       -0.58259
H          2.44751        0.93029       -0.68832
C          4.31337       -2.02513       -0.85317
H          4.34657       -1.85816       -1.92914
H          5.20413       -1.62982       -0.36549
H          4.18581       -3.08365       -0.62531
H         -0.46187       -2.11933        2.09608
H          0.46956       -0.61351        1.98280
H         -1.29673       -0.30506        3.62660
H         -1.57337        0.72823        2.22481
H         -3.02207       -1.76551        2.79152
H         -3.63364       -0.25977        2.63555
H          0.05403       -1.35616       -0.18198
H         -1.61248       -1.57177        0.04294
C         -0.50674       -1.06642        1.80183
C         -1.58123       -0.31170        2.56461
N         -0.76958       -1.01920        0.34159
N         -2.90405       -0.88163        2.30629
H         -0.92256       -0.03616        0.03878
H         -4.83990       -1.76441       -1.76160
H         -4.62078       -1.66936        0.00032
H         -4.67658        0.57834       -1.10495
H         -3.22439        0.26960       -0.16154
H         -3.38238        0.46867       -3.04854
H         -2.19204        0.93428       -2.00508
H         -3.13412       -3.30347       -0.97474
H         -2.46422       -2.13167       -1.91750
C         -4.13006       -1.49850       -0.96279
C         -3.75452       -0.02029       -1.07260
N         -2.91194       -2.31488       -1.02047
N         -2.87146        0.20848       -2.21388
