40
2msa1dma1eda_203.log	Energy: -1038020.3471718
S         -0.31501       -2.57925        0.08818
O          0.51530       -3.42428       -0.76300
O         -1.54742       -2.03471       -0.54236
O          0.45299       -1.43763        0.72804
C         -0.86372       -3.56092        1.47384
H         -1.46349       -4.38313        1.08231
H          0.01871       -3.94186        1.98815
H         -1.45865       -2.93017        2.13462
S          2.59667        0.86823       -0.26837
O          2.23594        1.71188        0.86992
O          1.76357        1.01905       -1.47043
O          2.70418       -0.62788        0.14361
H          1.75792       -1.04739        0.37010
C          4.28501        1.18582       -0.71234
H          4.90464        1.01354        0.16720
H          4.55826        0.51399       -1.52533
H          4.34146        2.22741       -1.02924
N         -0.78210        1.86404        1.40013
C         -1.35135        0.92143        2.35876
C         -1.26579        3.22558        1.58114
H          0.23554        1.84788        1.46223
H         -2.42628        0.83144        2.17004
H         -0.88510       -0.05527        2.20875
H         -1.20161        1.23676        3.40278
H         -2.34406        3.24773        1.39423
H         -1.08234        3.61356        2.59512
H         -0.77369        3.88862        0.86405
H         -1.87890        2.20835       -2.20234
H         -1.82510        0.63551       -3.01698
H         -4.13381        1.07740       -2.44934
H         -3.54175       -0.24324       -1.43586
H         -3.99405        2.50892       -0.55380
H         -4.55580        1.11719        0.09433
H         -0.08600        0.74559       -1.38257
H         -1.10164        1.18176       -0.13130
C         -2.03055        1.13314       -2.06573
C         -3.45529        0.83243       -1.61904
N         -1.06122        0.65101       -1.06440
N         -3.76361        1.53669       -0.37738
H         -1.22867       -0.35671       -0.85859
