32
2msa2ma_170.log	Energy: -953956.0186547
S          2.10948       -1.34986       -0.09218
O          2.84782       -0.25983        0.57506
O          1.80326       -1.13970       -1.49995
O          0.83016       -1.70243        0.72654
H          0.19925       -0.85603        0.81414
C          3.03682       -2.84755        0.11150
H          3.98082       -2.71080       -0.41649
H          3.20415       -3.00897        1.17572
H          2.46248       -3.66319       -0.32690
S         -1.36448        1.00503       -0.12882
O         -2.68019        1.38255        0.37738
O         -0.49213        0.36594        0.93745
O         -0.58841        2.12538       -0.74814
H          0.80288        2.24025       -0.01147
C         -1.57862       -0.23242       -1.38904
H         -2.12805       -1.06156       -0.93220
H         -2.15862        0.22290       -2.19282
H         -0.59564       -0.54062       -1.75023
N          1.70524        2.29270        0.55871
H          1.42102        2.48883        1.51690
C          2.63390        3.30900        0.02368
H          3.54959        3.32699        0.61494
H          2.86962        3.04692       -1.00715
H          2.15181        4.28603        0.04629
H          2.13256        1.34511        0.55937
N         -3.81731       -1.47742        0.71511
H         -4.04230       -2.16611        1.42393
C         -4.99077       -1.14616       -0.08824
H         -5.85394       -0.77873        0.48641
H         -4.71626       -0.36543       -0.80292
H         -5.30803       -2.02635       -0.65647
H         -3.47880       -0.64157        1.18405
