42
2msa2eda_34.log	Energy: -1072770.8754564
S         -2.72992       -1.14824       -0.20227
O         -3.46033        0.05512       -0.62077
O         -1.74658       -0.86361        0.90170
O         -2.06670       -1.89308       -1.30686
C         -3.92145       -2.27520        0.50126
H         -4.41242       -1.77534        1.33648
H         -4.64418       -2.52536       -0.27568
H         -3.39631       -3.16791        0.84101
S          2.57828        1.08352       -0.33930
O          2.23503        2.45720       -0.72056
O          2.38543        0.06714       -1.41022
O          1.87674        0.64682        0.92005
C          4.31903        1.05447        0.05527
H          4.87048        1.32663       -0.84508
H          4.50035        1.77808        0.85015
H          4.58586        0.04770        0.37948
H         -0.11542        2.91634       -0.60386
H         -1.03079        1.48660       -1.11388
H         -2.44718        3.55881       -1.23656
H         -3.09379        2.33672       -0.13614
H         -1.70620        4.80079        0.66109
H         -3.14870        4.22698        1.17809
H          0.30219        1.39309        1.06015
H         -0.98313        2.33988        1.67118
C         -0.96871        2.27774       -0.36479
C         -2.27834        3.05078       -0.27907
N         -0.70213        1.65495        0.96020
N         -2.22212        3.95347        0.87471
H         -1.24871        0.76969        1.06394
H          0.67666       -3.81504        0.09151
H          1.56107       -3.45899       -1.41572
H          3.07538       -3.83035        0.55468
H          3.28412       -2.24114       -0.19078
H          2.90016       -2.55691        2.42039
H          2.24674       -1.25326        1.65041
H         -0.33224       -1.94233       -1.06013
H          0.27831       -1.49095        0.37643
C          1.32714       -3.09684       -0.41199
C          2.59539       -2.85900        0.40328
N          0.56917       -1.83194       -0.54840
N          2.25722       -2.27148        1.69391
H          1.16191       -1.09144       -0.98546
