37
2msa1ma1eda_525.log	Energy: -1013349.2669605
S          1.68010       -1.43216       -0.50625
O          2.87965       -0.68239       -0.92515
O          0.56178       -1.38097       -1.48038
O          1.20837       -1.03686        0.86090
C          2.16602       -3.14753       -0.37573
H          2.51297       -3.47469       -1.35625
H          2.96790       -3.22232        0.35914
H          1.30025       -3.73058       -0.06000
S         -2.83640       -0.26891        0.47201
O         -1.97428        0.51531        1.33275
O         -3.34317        0.31276       -0.76694
O         -4.14079       -0.68603        1.34840
H         -4.92832       -0.41207        0.85702
C         -2.09897       -1.84390        0.16033
H         -1.20924       -1.66689       -0.45970
H         -1.81174       -2.27370        1.11987
H         -2.82849       -2.46272       -0.36181
N          2.84393        1.35987        1.97819
H          2.97467        1.59987        2.95523
C          4.07289        1.59217        1.20805
H          4.96203        1.13210        1.65714
H          3.93910        1.16055        0.21344
H          4.25054        2.66740        1.11233
H          2.59151        0.37097        1.93160
H          1.28296        3.05963       -0.95782
H          1.71568        1.35919       -1.29221
H         -0.07928        2.16981       -2.86071
H         -0.62162        0.83984       -1.84848
H         -1.50170        3.60004       -1.70260
H         -2.30074        2.21381       -1.30031
H          1.35049        1.86313        1.10310
H         -0.31866        2.15122        0.66998
C          0.91710        2.02857       -0.96498
C         -0.33163        1.89509       -1.82950
N          0.55913        1.67682        0.43141
N         -1.41043        2.69716       -1.25447
H          0.41933        0.65477        0.53740
