40
2msa1dma1eda_43.log	Energy: -1038037.3385343
S         -2.80774        0.64295       -0.05075
O         -3.52211       -0.54793       -0.53382
O         -2.31633        1.55713       -1.11660
O         -1.68371        0.28199        0.88387
C         -3.96299        1.58994        0.92506
H         -4.78413        1.88722        0.27230
H         -4.32538        0.95551        1.73399
H         -3.45090        2.46665        1.32167
S          2.34638       -1.13661        0.09438
O          1.77033       -2.43105        0.54735
O          2.41646       -0.11074        1.15780
O          1.65440       -0.61972       -1.12584
C          4.02238       -1.49820       -0.39553
H          4.55667       -1.87078        0.47865
H          3.99525       -2.25248       -1.18181
H          4.47290       -0.57543       -0.76308
N         -0.93256       -2.29203        0.15668
C         -1.83895       -3.15469        0.93950
C         -1.06499       -2.45087       -1.31117
H         -1.14447       -1.30224        0.41382
H         -1.63572       -4.20119        0.70642
H         -1.66640       -2.97234        2.00033
H         -2.86736       -2.89713        0.68146
H         -0.87178       -3.49380       -1.56858
H         -2.07250       -2.15248       -1.60253
H         -0.31754       -1.81077       -1.78120
H          0.06855       -2.44954        0.41387
H          1.19393        3.34629       -1.50677
H         -0.00478        3.76762       -0.25891
H          2.21789        4.42997        0.46295
H          1.60927        3.15415        1.51894
H          3.99944        3.02255        0.52718
H          3.10067        1.65036        0.53272
H         -0.54088        1.64759       -0.98401
H          1.03421        1.02558       -0.85862
C          0.85284        3.13091       -0.49248
C          1.98179        3.36171        0.50189
N          0.36632        1.72956       -0.47925
N          3.16483        2.59286        0.14726
H          0.13179        1.40003        0.46464
