32
2msa2ma_53.log	Energy: -953966.6035284
S          2.16011       -0.87785       -0.10952
O          2.94759        0.11067        0.64480
O          2.03718       -0.62140       -1.55287
O          0.79276       -1.03811        0.54577
C          2.93772       -2.46911        0.08973
H          3.93029       -2.40897       -0.35751
H          3.00506       -2.68691        1.15539
H          2.32913       -3.21357       -0.42371
S         -2.53772       -0.47240        0.26079
O         -2.25108        0.95544        0.46114
O         -2.79034       -1.26907        1.44834
O         -1.42247       -1.11599       -0.64213
H         -0.49045       -1.13104       -0.18924
C         -3.90880       -0.60427       -0.86038
H         -4.76905       -0.16041       -0.35861
H         -3.66732       -0.05963       -1.77260
H         -4.08297       -1.66025       -1.06452
N          0.36400        1.66519        1.21664
H         -0.65298        1.74604        1.31248
H          0.57049        0.65069        1.23496
C          1.14833        2.39739        2.22669
H          2.20183        2.17720        2.05429
H          0.96451        3.46747        2.12399
H          0.86391        2.06980        3.22698
H          0.61622        1.96978        0.21697
N          0.98552        2.20665       -1.43503
H          1.39272        3.09816       -1.69895
C         -0.21264        1.92162       -2.23706
H         -0.03418        1.99001       -3.31655
H         -0.54875        0.90865       -2.00756
H         -1.01234        2.61551       -1.96435
H          1.68223        1.48227       -1.61736
