37
2msa1ma1eda_123.log	Energy: -1013362.3668482
S         -2.17590       -0.69513       -0.60168
O         -1.61146       -0.54055        0.78932
O         -1.61476       -1.85381       -1.30474
O         -2.08787        0.59251       -1.34017
C         -3.91584       -1.00362       -0.36283
H         -4.01980       -1.93019        0.20190
H         -4.34626       -0.16443        0.18356
H         -4.37580       -1.09998       -1.34660
S          1.69070       -1.68106        0.53461
O          2.90875       -1.99646        1.25215
O          1.60508       -0.38783       -0.15910
O          0.49231       -1.79510        1.55093
H         -0.34693       -1.33122        1.21037
C          1.34826       -2.95478       -0.65554
H          2.14725       -2.92731       -1.39748
H          1.34653       -3.90897       -0.12857
H          0.37468       -2.74274       -1.10487
N          2.57970        1.86809       -1.79628
H          2.52566        0.85599       -1.88728
C          3.56477        2.20605       -0.76132
H          4.58377        1.87788       -0.99842
H          3.57630        3.28867       -0.60738
H          3.26546        1.72341        0.17205
H          2.85003        2.24888       -2.69685
H          0.50865        3.75511        0.58705
H         -0.76063        3.85944       -0.66119
H         -1.66380        3.90069        1.70451
H         -2.30706        2.57017        0.73527
H         -1.03608        2.28010        3.14512
H         -1.22141        1.07451        2.03026
H          0.95344        2.07349       -1.06908
H          0.43453        1.34403        0.32369
C         -0.35317        3.24702        0.14700
C         -1.40129        2.95490        1.22109
N          0.12370        1.97267       -0.42757
N         -0.85586        2.01008        2.18833
H         -0.65091        1.46801       -0.91183
