40
2msa1dma1eda_143.log	Energy: -1038022.3037400
S         -2.56990       -0.47416       -0.21133
O         -2.51747        0.72498       -1.08195
O         -2.42218       -0.19549        1.22563
O         -1.58691       -1.50847       -0.70188
C         -4.17470       -1.20940       -0.45171
H         -4.92322       -0.48771       -0.12410
H         -4.29306       -1.43560       -1.51123
H         -4.22559       -2.11755        0.14908
S          1.62577       -1.84627        0.19287
O          1.88223       -0.80233        1.18238
O          1.68591       -1.40701       -1.20942
O          0.28728       -2.58429        0.47740
H         -0.54721       -2.10666        0.03086
C          2.78361       -3.16901        0.43271
H          3.78003       -2.74743        0.29815
H          2.65851       -3.55070        1.44581
H          2.58161       -3.94211       -0.30783
N         -0.25145        1.84701        1.37152
C         -1.09174        3.02522        1.16968
C          0.79323        2.04483        2.37204
H         -0.85594        1.06887        1.64208
H         -0.48600        3.84050        0.75493
H         -1.88706        2.77706        0.46185
H         -1.54838        3.38487        2.10269
H          1.50737        2.79765        2.01912
H          0.38793        2.38968        3.33466
H          1.32799        1.10589        2.52061
H          1.32074        1.81437       -2.90030
H          0.29125        3.02835       -2.11928
H          2.73140        3.42244       -1.69827
H          1.79814        3.23204       -0.22382
H          2.68210        1.07392        0.08812
H          3.41956        1.07203       -1.37607
H          0.74012        0.22606       -1.31646
H          0.16602        1.36667       -0.16729
C          0.98830        2.20622       -1.93452
C          2.17910        2.69157       -1.09719
N          0.25796        1.13235       -1.22520
N          3.09347        1.67049       -0.62492
H         -0.71776        1.00945       -1.54113
