34
2msa1a1eda_61.log	Energy: -988709.9001366
S         -2.13512       -1.15473       -0.10883
O         -1.00799       -1.54644       -0.97252
O         -2.60505        0.23845       -0.42975
O         -1.87444       -1.31149        1.34593
H         -0.44117       -0.56290        2.01018
C         -3.51086       -2.22438       -0.47975
H         -3.74875       -2.11422       -1.53768
H         -3.20925       -3.24798       -0.25656
H         -4.35467       -1.92575        0.14221
S          2.82435       -0.40021       -0.05650
O          2.62197       -0.83916        1.36142
O          4.19775       -0.04561       -0.39343
O          1.82594        0.67933       -0.37781
H          0.41915        0.88136       -1.08899
C          2.35130       -1.80076       -1.05879
H          2.98433       -2.64080       -0.77087
H          1.29618       -2.01814       -0.88087
H          2.52278       -1.54272       -2.10483
N          0.33177        0.07372        2.30011
H          0.35835        0.14693        3.31286
H          0.11817        0.99754        1.88535
H          1.26822       -0.29588        1.93646
H         -2.27844        3.24763       -0.45788
H         -1.06855        4.23264        0.36611
H         -0.29212        3.53838       -1.84273
H          0.76929        2.91943       -0.55701
H         -1.28040        1.00467       -1.20675
H         -0.30049        1.38973       -2.50606
H         -1.66300        2.80083        1.99709
H         -1.93284        1.54098        0.99217
C         -1.29476        3.21613        0.03112
C         -0.22853        2.85257       -0.99488
N         -1.29211        2.31365        1.18788
N         -0.37721        1.45051       -1.49425
