35
2msa1ma1dma_261.log	Energy: -978615.7992465
S          0.89131        1.60277        0.37440
O          2.12644        2.27124       -0.01429
O          0.39943        0.63769       -0.69957
O         -0.24297        2.51462        0.72044
H         -1.48043        2.16861       -0.21871
C          1.21436        0.60251        1.80914
H          1.97815       -0.12396        1.51479
H          1.57478        1.26974        2.59275
H          0.28764        0.11048        2.11024
S         -1.78665       -1.63723        0.23651
O         -2.68359       -0.85614       -0.63825
O         -1.75341       -1.23719        1.63549
O         -0.35507       -1.68142       -0.38068
H          0.03431       -0.69882       -0.48748
C         -2.24324       -3.34579        0.10517
H         -3.24849       -3.43781        0.51724
H         -2.22307       -3.63074       -0.94608
H         -1.53287       -3.93098        0.68858
N         -2.21144        1.88205       -0.94031
H         -1.74679        1.96377       -1.84347
C         -3.43807        2.69974       -0.85580
H         -4.15286        2.37737       -1.61301
H         -3.87244        2.56639        0.13434
H         -3.18503        3.74958       -1.00195
H         -2.40786        0.87090       -0.80015
N          3.22184       -0.86713       -0.40959
C          3.30387       -2.20448       -0.96762
C          4.51747       -0.22451       -0.26266
H          2.62147       -0.28613       -0.98664
H          3.84728       -2.85646       -0.27408
H          2.29753       -2.61370       -1.09377
H          3.82532       -2.24691       -1.94104
H          5.10663       -0.75804        0.49243
H          5.10652       -0.20639       -1.19699
H          4.36968        0.80471        0.07309
