40
2msa1dma1eda_379.log	Energy: -1038014.0697741
S         -0.84580        2.27609       -0.33932
O         -0.98512        3.71277       -0.16077
O         -1.77431        1.49179        0.56908
O          0.54720        1.75147       -0.18806
H          0.85448        0.83525        1.16376
C         -1.34339        1.85118       -1.99879
H         -1.28966        0.76684       -2.11592
H         -2.36271        2.21067       -2.14249
H         -0.66317        2.35090       -2.68960
S         -1.59746       -1.84197       -0.07669
O         -0.60146       -1.97128        1.00111
O         -1.07574       -1.62104       -1.41997
O         -2.65921       -0.76960        0.29700
H         -2.25302        0.22264        0.36513
C         -2.60094       -3.30543       -0.06494
H         -1.94355       -4.14100       -0.30694
H         -3.03266       -3.42323        0.92834
H         -3.37620       -3.19125       -0.82209
N          0.89345        0.18867        1.99368
C          0.04765        0.75301        3.07113
C          2.29489       -0.06316        2.39638
H          0.45117       -0.68244        1.65080
H          0.49419        1.68653        3.41663
H         -0.94131        0.95380        2.66018
H         -0.00819        0.03702        3.89247
H          2.75227        0.88749        2.67609
H          2.30099       -0.73876        3.25403
H          2.85365       -0.51211        1.56873
H          1.75157       -1.14496       -0.47218
H          2.52191       -1.98671       -1.81417
H          4.19897       -0.17673       -2.02309
H          3.42046        0.71323       -0.71048
H          4.56403       -1.97123       -0.35644
H          5.25212       -0.58447        0.14498
H          0.73454       -0.72860       -2.64646
H          1.28141        0.64554       -1.97787
C          2.31454       -0.98809       -1.40827
C          3.63288       -0.29475       -1.08892
N          1.58324       -0.22545       -2.40893
N          4.35848       -1.02661       -0.04390
