40
2msa1dma1eda_329.log	Energy: -1038016.3444960
S          0.86531        2.15341        0.20682
O          1.51765        3.31073       -0.39297
O          1.73470        1.22059        0.95004
O          0.06089        1.35006       -0.82652
C         -0.37000        2.74105        1.35570
H         -0.90159        1.87800        1.75981
H          0.15136        3.28211        2.14588
H         -1.05054        3.40648        0.82331
S         -2.87259       -0.14112       -0.25357
O         -2.11282       -0.45903        0.96015
O         -2.89394       -1.17084       -1.28751
O         -2.40783        1.23490       -0.83189
H         -1.35508        1.32225       -0.84866
C         -4.54601        0.26431        0.18416
H         -4.52763        1.05225        0.93618
H         -5.06417        0.59085       -0.71713
H         -5.00038       -0.64334        0.58235
N          3.69368       -1.17483       -0.50540
C          4.23083       -0.97708        0.84441
C          3.92900       -0.01261       -1.36936
H          4.12946       -1.99229       -0.92190
H          3.70572       -0.13621        1.30479
H          4.05168       -1.87402        1.44407
H          5.30937       -0.76223        0.84166
H          3.43945        0.85783       -0.92646
H          4.99852        0.21147       -1.48988
H          3.49210       -0.19149       -2.35538
H         -0.78761       -2.07749       -1.09405
H          0.76077       -2.71190       -1.67894
H         -0.54509       -4.29662       -0.17775
H          1.10207       -3.97827        0.38848
H         -1.24442       -2.54266        1.44724
H         -0.32122       -3.65688        2.24971
H          0.58682       -0.32089       -0.56890
H          0.67836       -1.21156        0.81712
C          0.21233       -2.39379       -0.78945
C          0.11634       -3.52275        0.23685
N          0.90290       -1.23256       -0.18593
N         -0.32139       -2.96608        1.51049
H          1.95814       -1.27392       -0.29182
