44
2msa2tma_56.log	Energy: -1052598.9022570
S          0.58914       -1.11990        0.72265
O         -0.66547       -1.81455        1.14486
O          1.21162       -0.33888        1.80631
O          0.34893       -0.29439       -0.50443
H         -0.15527        1.20075       -0.13046
C          1.72932       -2.39649        0.24031
H          1.89270       -3.03537        1.10890
H          1.27192       -2.96270       -0.57157
H          2.66486       -1.92854       -0.08375
S         -3.46763       -0.37520       -0.41757
O         -2.82618        0.46951       -1.42312
O         -3.68280        0.23126        0.89430
O         -2.73866       -1.75544       -0.28359
H         -1.88098       -1.72896        0.29487
C         -5.02032       -0.95035       -1.06370
H         -5.64375       -0.06973       -1.22079
H         -4.83231       -1.46267       -2.00686
H         -5.47116       -1.62062       -0.33276
N         -0.27283        2.18930        0.23563
C         -1.03199        2.09275        1.51206
H         -2.00701        1.64405        1.31480
H         -0.46641        1.45371        2.19146
H         -1.14592        3.09644        1.92918
C          1.10477        2.68722        0.46753
H          1.60197        1.99438        1.14814
H          1.63697        2.71222       -0.48420
H          1.05601        3.68988        0.89870
C         -0.99881        2.98066       -0.78529
H         -0.41743        2.98001       -1.70817
H         -1.96131        2.50310       -0.96815
H         -1.12488        4.00287       -0.42028
N          4.39586       -0.40691       -0.63343
C          3.57036        0.39295       -1.52146
H          3.50126       -0.09048       -2.50044
H          2.55657        0.46930       -1.11879
H          3.98218        1.41247       -1.66823
C          4.47400        0.18988        0.68989
H          3.47384        0.26255        1.12701
H          5.08051       -0.44279        1.34473
H          4.93266        1.19866        0.66618
C          5.71651       -0.62235       -1.19595
H          6.30428       -1.26450       -0.53348
H          5.63019       -1.11965       -2.16654
H          6.27245        0.32479       -1.34121
