37
2msa1ma1eda_279.log	Energy: -1013359.1511822
S         -1.95191       -1.38607       -0.41905
O         -1.83040       -1.62327        1.03095
O         -0.62445       -1.34579       -1.11462
O         -2.76707       -0.19204       -0.76686
C         -2.81038       -2.78400       -1.11600
H         -2.22970       -3.68039       -0.89740
H         -3.79454       -2.84058       -0.65062
H         -2.89789       -2.62965       -2.19127
S          2.59449       -0.52546       -0.12244
O          2.33039        0.13990        1.15014
O          2.50589        0.29101       -1.32842
O          1.71565       -1.82452       -0.26202
H          0.75307       -1.63318       -0.55817
C          4.19513       -1.29398       -0.03943
H          4.92282       -0.49434        0.10189
H          4.20485       -1.97957        0.80741
H          4.37418       -1.82022       -0.97641
N         -1.40780        0.78443        2.74558
H         -2.15612        0.93934        3.41414
C         -0.09978        0.82887        3.41478
H         -0.01620        0.11291        4.24141
H          0.68140        0.60091        2.68653
H          0.07745        1.83398        3.80877
H         -1.56277       -0.14278        2.33803
H          0.58679        2.24679        0.38372
H          0.02994        0.82754       -0.51643
H          0.88383        2.55361       -2.06837
H         -0.83115        2.22273       -2.33304
H          0.25284        4.58958       -0.99288
H         -0.81627        4.51651       -2.22405
H         -1.49541        1.69217        1.30490
H         -1.80593        2.98717        0.17302
C         -0.15595        1.88329       -0.33061
C         -0.11532        2.66514       -1.63253
N         -1.50282        2.01509        0.28061
N         -0.51936        4.05208       -1.37403
H         -2.15494        1.36251       -0.20318
