41
2msa1dma1tma_105.log	Energy: -1027938.7256629
S          1.07784        1.91530        0.16376
O          0.21390        1.77888       -1.05798
O          2.45603        1.46894       -0.06137
O          0.41917        1.28235        1.34051
C          1.12649        3.66313        0.51579
H          1.57559        4.16390       -0.34215
H          0.10550        4.00995        0.67611
H          1.73169        3.81369        1.40993
S         -2.60467       -0.19569       -0.42213
O         -2.31980       -0.45434        0.99123
O         -2.07044       -1.16334       -1.37403
O         -2.21671        1.26633       -0.81794
H         -1.18887        1.44016       -0.89413
C         -4.36657       -0.07546       -0.62640
H         -4.78380       -1.04875       -0.36663
H         -4.74046        0.69747        0.04435
H         -4.57543        0.16859       -1.66751
N          2.18585       -1.96446       -1.72431
C          3.50413       -1.33869       -1.68172
C          1.24247       -1.20650       -2.54629
H          2.27699       -2.90080       -2.10635
H          3.41256       -0.35091       -1.21972
H          4.18297       -1.94771       -1.07521
H          3.95586       -1.20655       -2.67970
H          1.09937       -0.21366       -2.11231
H          1.58771       -1.07717       -3.58587
H          0.26941       -1.70436       -2.55446
N          0.56873       -1.36086        1.75524
C          2.04814       -1.30828        1.87603
H          2.46969       -1.25178        0.87244
H          2.31996       -0.41251        2.43321
H          2.39262       -2.20971        2.38814
C         -0.10262       -1.38337        3.07637
H          0.20404       -0.49778        3.63355
H         -1.17870       -1.35368        2.90875
H          0.18749       -2.29211        3.60889
C          0.13915       -2.48625        0.88537
H         -0.93521       -2.41284        0.73086
H          0.67805       -2.40278       -0.06262
H          0.39952       -3.42251        1.38660
H          0.29624       -0.44263        1.33309
