35
2msa1ma1dma_182.log	Energy: -978619.5590573
S          2.43461       -1.26071       -0.14581
O          3.05057        0.05504        0.11371
O          1.75820       -1.39983       -1.42867
O          1.50083       -1.65421        1.03654
H          0.71477       -0.93922        1.15671
C          3.69326       -2.49974        0.01806
H          4.42297       -2.31946       -0.77175
H          4.15029       -2.40007        1.00188
H          3.22458       -3.47585       -0.10417
S         -1.44123        0.26678        0.40820
O         -2.64989        0.53069        1.18404
O         -0.21975        0.07252        1.29174
O         -1.12156        1.30770       -0.61456
H          0.37721        1.84728       -0.41797
C         -1.65866       -1.26272       -0.47476
H         -1.80472       -2.05327        0.26303
H         -2.55419       -1.14291       -1.09216
H         -0.76739       -1.44896       -1.07671
N         -4.78738       -0.25435       -0.91019
H         -4.33731        0.39432       -0.26906
C         -5.47312       -1.30099       -0.15973
H         -6.27609       -0.94481        0.50307
H         -5.90115       -2.03127       -0.85372
H         -4.74264       -1.82548        0.46343
H         -5.43849        0.27088       -1.48235
N          1.33474        2.25518       -0.21462
C          1.25051        2.97587        1.07397
C          1.76037        3.08086       -1.36080
H          1.97873        1.44980       -0.10565
H          0.51946        3.78047        0.98245
H          0.91762        2.26436        1.82975
H          2.23044        3.38175        1.33074
H          1.03551        3.88241       -1.50985
H          2.74825        3.50165       -1.16592
H          1.79522        2.45040       -2.24940
