32
2msa2ma_85.log	Energy: -953959.5066975
S         -1.82292       -0.18599       -0.42625
O         -1.21397        1.11295       -0.74579
O         -2.82230       -0.69298       -1.36565
O         -2.46321       -0.09629        0.99831
H         -3.50516       -0.42328        0.96655
C         -0.52510       -1.37350       -0.21727
H          0.02687       -1.45007       -1.15493
H          0.14951       -1.03718        0.57327
H         -0.97943       -2.33075        0.03723
S          3.08686       -0.67697        0.05097
O          2.60601       -1.95684       -0.47779
O          2.26885       -0.16237        1.20151
O          3.25124        0.39286       -0.98231
H          2.03047        1.64837       -0.72632
C          4.72085       -0.96217        0.71392
H          4.64187       -1.72368        1.49011
H          5.35744       -1.31019       -0.10004
H          5.10068       -0.02758        1.12701
N         -4.88162       -0.80310        0.77746
H         -4.83622       -1.48204        0.02050
C         -5.64446        0.38078        0.34768
H         -6.68484        0.14677        0.10309
H         -5.62245        1.12691        1.14400
H         -5.15536        0.79946       -0.53350
H         -5.31359       -1.25239        1.57940
N          1.32436        2.02804       -0.05651
H          0.37737        1.76035       -0.37918
C          1.45887        3.47238        0.19659
H          0.72883        3.77994        0.94517
H          2.46630        3.67914        0.55763
H          1.28273        4.01924       -0.72956
H          1.53866        1.42595        0.76564
