43
2msa1eda1tma_205.log	Energy: -1062672.8624024
S          1.81520        1.82307       -0.40327
O          3.13700        1.22376       -0.65711
O          1.43542        1.78550        1.04528
O          0.73079        1.28664       -1.27383
H         -0.00474       -0.06739       -1.35731
C          1.91436        3.55358       -0.81459
H          0.94390        4.00800       -0.61545
H          2.68936        4.00381       -0.19423
H          2.16904        3.63351       -1.87142
S         -1.00316       -1.90611       -0.59069
O         -0.42189       -3.19392       -0.93792
O         -0.61494       -0.82654       -1.66036
O         -0.74797       -1.39777        0.76988
H          0.89115       -1.15609        1.41341
C         -2.75867       -1.96850       -0.81893
H         -2.94978       -2.22695       -1.86067
H         -3.13815       -2.74527       -0.15370
H         -3.15928       -0.97975       -0.55899
H          3.59980       -0.34359        1.38187
H          3.42389       -1.63796        2.59177
H          3.97074       -2.54152        0.34162
H          2.38991       -3.11439        0.89137
H          2.74236       -0.90013       -1.01336
H          1.93700       -2.34666       -1.24019
H          1.37387       -0.78168        2.96559
H          1.54061        0.33276        1.70141
C          2.99731       -1.20305        1.68569
C          2.93784       -2.22600        0.55565
N          1.62472       -0.68811        1.98541
N          2.22344       -1.64994       -0.56398
N         -3.42395        1.00629        0.41664
C         -2.18167        1.74871        0.25861
H         -1.33904        1.14821        0.60580
H         -2.01329        1.97826       -0.79667
H         -2.18871        2.69666        0.83003
C         -4.56403        1.78451       -0.03138
H         -4.42816        2.06509       -1.08007
H         -5.47989        1.19030        0.04866
H         -4.70175        2.71195        0.55749
C         -3.59063        0.55063        1.78553
H         -4.51621       -0.02778        1.87469
H         -2.75078       -0.09645        2.05552
H         -3.63824        1.38730        2.50878
