34
2msa1a1eda_298.log	Energy: -988692.7043879
S         -0.67441       -1.63075       -0.38712
O         -0.41584       -0.37576       -1.16095
O         -2.05276       -2.12679       -0.57625
O         -0.34378       -1.43920        1.06256
H         -1.87930       -1.05717        1.79718
C          0.45759       -2.84805       -1.01263
H          0.23038       -2.99682       -2.06851
H          1.46854       -2.45703       -0.88301
H          0.30724       -3.76993       -0.45056
S          2.85508        0.45949        0.14778
O          3.93252        1.42500        0.08884
O          2.98306       -0.82575       -0.52865
O          1.54842        1.19771       -0.38712
H          0.85107        0.54096       -0.68572
C          2.44624        0.14580        1.85231
H          3.30280       -0.36239        2.29725
H          2.27379        1.10478        2.34111
H          1.55540       -0.48577        1.87234
N         -2.91822       -0.92859        1.78986
H         -3.29829       -0.74389        2.71294
H         -3.28458       -1.79746        1.39998
H         -3.13387       -0.13104        1.04194
H         -3.53652        2.98085       -0.49766
H         -3.37344        2.48233        1.19991
H         -1.34576        3.55554        0.54308
H         -0.97218        1.83397        0.69144
H         -0.18289        3.07545       -1.36378
H         -0.95466        1.68973       -1.66548
H         -4.26234        0.80282       -0.53704
H         -2.69648        0.53739       -0.88098
C         -3.01859        2.29326        0.17927
C         -1.52398        2.57597        0.08911
N         -3.32443        0.88437       -0.15460
N         -1.09163        2.62911       -1.30252
