42
2msa2eda_570.log	Energy: -1072742.0475271
S          2.12354       -0.73405       -0.94290
O          1.76888       -2.16089       -0.79738
O          2.92148       -0.19252        0.18865
O          0.92257        0.11743       -1.20751
C          3.16006       -0.60031       -2.39116
H          4.06097       -1.18825       -2.21380
H          2.60919       -0.99249       -3.24642
H          3.41000        0.45024       -2.54005
S         -2.50388       -1.13334       -0.43086
O         -1.94874        0.11981        0.05094
O         -3.86314       -1.18147       -0.93953
O         -2.43206       -2.14663        0.84417
H         -3.24057       -2.67834        0.85406
C         -1.38810       -1.90257       -1.57078
H         -1.24849       -1.19906       -2.39223
H         -0.42496       -2.08123       -1.08408
H         -1.85685       -2.82584       -1.91230
H          0.09735        0.40085        3.50410
H         -1.09565       -0.22587        2.32825
H          0.23913       -2.05132        3.29778
H          0.56739       -1.92379        1.56788
H          2.49677       -2.01506        3.35632
H          2.66387       -1.08556        2.01642
H          0.05608        1.77241        1.53875
H          1.52704        0.89358        1.57460
C         -0.03375       -0.09271        2.53802
C          0.71020       -1.42223        2.53628
N          0.50630        0.82061        1.49903
N          2.11659       -1.21486        2.86694
H          0.34523        0.46778        0.53458
H         -0.83397        4.98585       -0.01547
H          0.69798        4.56446        0.78243
H          0.68937        4.02380       -1.62639
H          0.96838        2.58789       -0.63914
H         -0.70333        2.41351       -2.48304
H         -1.26985        1.92374       -1.05461
H         -1.09581        3.82745        2.13012
H         -1.77985        2.99987        0.90961
C         -0.19682        4.15123        0.30495
C          0.21275        3.33864       -0.91743
N         -0.88290        3.29484        1.29226
N         -0.95887        2.75018       -1.56125
