37
2msa1ma1eda_387.log	Energy: -1013355.7511602
S         -1.84907        1.35869       -0.21706
O         -2.18925        0.81816       -1.53785
O         -0.37307        1.36432        0.05995
O         -2.58720        0.71728        0.91248
H         -1.85854       -0.66491        1.44056
C         -2.33129        3.07428       -0.19170
H         -1.79965        3.58236       -0.99660
H         -3.40841        3.12240       -0.35284
H         -2.06556        3.49563        0.77768
S          2.06281       -1.13529       -0.19643
O          2.20373       -2.36168       -0.96226
O          1.35254       -1.20578        1.09202
O          1.40165       -0.03734       -1.10918
H          0.64503        0.46975       -0.64968
C          3.66093       -0.43515        0.11569
H          4.20523       -1.13558        0.75032
H          4.16237       -0.31644       -0.84518
H          3.49620        0.52914        0.61244
N          2.29944        2.38535        1.13827
H          1.35294        2.01985        1.21327
C          2.40719        3.20359       -0.06842
H          1.69318        4.03861       -0.11769
H          3.41890        3.61395       -0.14504
H          2.23828        2.56861       -0.94219
H          2.47551        2.94269        1.96707
H         -1.33923       -3.59020        1.14448
H         -2.94007       -2.91579        1.53853
H         -2.65647       -3.33388       -0.93132
H         -2.99193       -1.64110       -0.55046
H         -0.42036       -2.67074       -1.45892
H         -1.18343       -1.22079       -1.75497
H         -1.22522       -1.66865        2.64706
H         -0.37588       -1.42963        1.23764
C         -1.99942       -2.72830        1.01487
C         -2.23832       -2.42962       -0.46699
N         -1.33016       -1.55727        1.64146
N         -1.01278       -1.94783       -1.06976
