40
2msa1dma1eda_304.log	Energy: -1038019.3401760
S          1.20706        1.88775        0.12358
O          1.40781        1.31528        1.46853
O          0.03334        1.25316       -0.58883
O          2.40419        1.86797       -0.73480
C          0.74711        3.59831        0.34255
H         -0.15998        3.63676        0.94692
H          1.56976        4.10066        0.85216
H          0.57829        4.03623       -0.64129
S         -3.08438       -0.26480       -0.29962
O         -3.57218       -0.88036        0.92541
O         -2.21347       -1.05492       -1.17143
O         -2.41722        1.12554        0.01460
H         -1.40578        1.15104       -0.16968
C         -4.49475        0.26368       -1.24686
H         -5.06359       -0.63169       -1.49972
H         -5.09099        0.93447       -0.62857
H         -4.13914        0.76683       -2.14540
N          3.21895       -0.96643       -0.72026
C          4.01169       -1.64270       -1.74109
C          3.80818       -1.05392        0.61557
H          3.12069        0.02671       -0.94999
H          4.04987       -2.71717       -1.53019
H          3.54812       -1.50101       -2.72120
H          5.04545       -1.26997       -1.78995
H          3.76513       -2.08913        0.97446
H          4.85909       -0.73025        0.63047
H          3.23859       -0.41193        1.29274
H         -0.83415       -2.96019        0.18924
H          0.87818       -3.46996        0.26095
H          0.04013       -2.76324        2.51857
H          1.31775       -1.68599        1.95454
H         -1.48901       -0.99777        2.22528
H         -0.12495       -0.01063        2.19855
H          0.12893       -1.79806       -1.53603
H          0.07795       -0.69732       -0.33233
C          0.18876       -2.62945        0.38087
C          0.28366       -1.99642        1.77218
N          0.52069       -1.58941       -0.62043
N         -0.57703       -0.83414        1.82086
H          1.58076       -1.40610       -0.69129
