37
2msa1ma1eda_165.log	Energy: -1013362.0881022
S         -1.31450        1.77876       -0.11167
O         -2.29791        1.63477        0.97050
O         -1.52603        0.85366       -1.25802
O          0.09531        1.67127        0.40411
C         -1.47186        3.42798       -0.76753
H         -1.29306        4.13245        0.04491
H         -0.73434        3.55316       -1.56052
H         -2.48303        3.53924       -1.15947
S          2.84258       -0.28367       -0.24584
O          2.15393       -1.55329       -0.52476
O          3.15270        0.00634        1.14420
O          2.06734        0.90073       -0.91943
H          1.23845        1.22226       -0.37532
C          4.32654       -0.25495       -1.22044
H          4.05892       -0.40424       -2.26595
H          4.81523        0.70712       -1.07001
H          4.95564       -1.06975       -0.86095
N         -1.09600       -0.75926        2.39082
H         -1.59373        0.11318        2.19944
C          0.18411       -0.47931        3.05843
H          0.06285        0.00834        4.03286
H          0.73540       -1.41265        3.19968
H          0.78250        0.17134        2.41881
H         -1.69487       -1.32054        2.98835
H         -1.25019       -3.16671       -1.52060
H         -1.26723       -3.56920        0.21596
H         -3.54846       -3.36907       -0.53029
H         -3.20078       -1.98586        0.51454
H         -4.35998       -1.55312       -1.70226
H         -3.01661       -0.63994       -1.49251
H          0.34952       -1.79073       -0.35108
H         -0.90938       -0.80297       -0.80386
C         -1.50402       -2.79981       -0.52390
C         -2.98292       -2.43400       -0.46954
N         -0.65887       -1.62113       -0.21864
N         -3.35322       -1.59543       -1.60045
H         -0.81334       -1.32031        0.80138
