35
2msa1ma1dma_223.log	Energy: -978616.4933410
S         -2.86999       -0.80510        0.24667
O         -3.08541        0.52859        0.84119
O         -1.97191       -1.68897        0.97554
O         -2.43813       -0.65597       -1.24486
H         -1.54773       -0.08823       -1.31665
C         -4.45343       -1.57631        0.04053
H         -4.87081       -1.71861        1.03766
H         -5.08364       -0.91897       -0.55732
H         -4.30032       -2.53494       -0.45451
S          1.00256        0.37241       -0.94383
O          1.97518        0.83394       -1.92427
O         -0.42234        0.75667       -1.29584
O          1.27111        0.84100        0.45902
H          0.01428        1.57508        1.09074
C          1.04330       -1.40488       -0.88115
H          0.85448       -1.78091       -1.88742
H          2.04420       -1.67734       -0.53088
H          0.27788       -1.74615       -0.18142
N         -0.85619        2.12241        1.37672
H         -1.67700        1.50152        1.22956
C         -0.97076        3.33426        0.53005
H         -1.88409        3.87393        0.78042
H         -0.09716        3.96569        0.69002
H         -0.99645        3.00068       -0.50696
H         -0.79726        2.35053        2.36644
N          3.95030       -0.82385        0.64812
C          4.89066       -0.30368       -0.33167
C          4.59750       -1.34361        1.83796
H          3.28277       -0.09902        0.89765
H          5.49582       -1.12661       -0.72968
H          4.33873        0.14967       -1.15869
H          5.58394        0.45011        0.08366
H          5.20170       -2.21937        1.57401
H          5.26659       -0.61550        2.33230
H          3.84257       -1.66504        2.56126
