34
2msa1a1eda_246.log	Energy: -988695.4108300
S         -2.32173       -1.07121        0.12407
O         -3.61201       -1.26994        0.77881
O         -1.25284       -0.49737        0.99714
O         -2.40665       -0.27491       -1.15167
H         -1.25106        0.74537       -1.19751
C         -1.71555       -2.67450       -0.38541
H         -1.62023       -3.30034        0.50324
H         -2.44297       -3.10493       -1.07428
H         -0.75199       -2.53437       -0.87873
S          2.04464       -0.64782       -0.18302
O          1.29680       -1.06889       -1.35575
O          1.93484        0.76607        0.21177
O          3.57294       -0.97413       -0.40122
H          4.16509       -0.19460       -0.06217
C          1.60283       -1.66433        1.19946
H          0.54398       -1.46294        1.39537
H          1.77414       -2.70462        0.92147
H          2.22683       -1.37747        2.04620
N          4.90585        1.11130        0.46152
H          5.47785        1.01760        1.29455
H          4.10585        1.70159        0.68220
H          5.45960        1.57791       -0.24975
H         -0.49541        3.63771       -0.92777
H         -1.86466        2.99565       -1.88315
H         -2.53335        3.80398        0.40001
H         -2.92376        2.10146        0.12417
H         -1.59744        2.92676        2.26092
H         -1.27335        1.46848        1.58074
H          0.05529        1.51387       -1.97375
H          0.07786        1.37907       -0.33791
C         -1.24557        2.84596       -0.99524
C         -2.09703        2.80876        0.27202
N         -0.53645        1.55079       -1.14689
N         -1.25960        2.47681        1.41991
