34
2msa1a1eda_33.log	Energy: -988711.0957618
S          2.77578        0.01299       -0.09448
O          4.09962       -0.31466        0.42138
O          2.67246        1.27050       -0.88255
O          1.70077        0.02606        0.97681
H          1.05905        1.89404       -0.70182
C          2.28297       -1.29890       -1.20802
H          2.97628       -1.29441       -2.04980
H          2.34638       -2.25062       -0.67848
H          1.25924       -1.11971       -1.54168
S         -1.82104       -1.25337       -0.34352
O         -1.34668       -0.28672       -1.36767
O         -2.01485       -0.61415        0.99013
O         -0.97838       -2.47427       -0.25150
H         -0.01015       -2.41814        1.25173
C         -3.42535       -1.79961       -0.89636
H         -4.07938       -0.92999       -0.96401
H         -3.30225       -2.26664       -1.87354
H         -3.80951       -2.51718       -0.17130
N          0.31789       -1.85717        2.06396
H          1.02107       -1.13420        1.67867
H          0.70347       -2.42144        2.81406
H         -0.51797       -1.34240        2.35687
H         -2.67449        2.24298       -0.57398
H         -2.60868        3.88178        0.07812
H         -0.76620        3.34045       -1.60337
H         -0.17340        3.92095       -0.02660
H          0.14359        1.64238        0.63685
H         -0.40407        1.06191       -0.80332
H         -2.58882        2.85465        2.08143
H         -2.15820        1.38900        1.45418
C         -2.09692        2.91506        0.07429
C         -0.70849        3.11633       -0.53585
N         -1.97108        2.38985        1.43044
N          0.07196        1.87610       -0.35915
