42
2msa2eda_447.log	Energy: -1072748.6682101
S         -0.42904        1.50752        0.38341
O          0.44655        0.55028        1.13052
O         -1.54336        2.00088        1.23231
O         -0.93671        0.89179       -0.87666
H         -2.50460       -0.18408       -0.28605
C          0.58528        2.89325       -0.06568
H          0.95657        3.34784        0.85328
H          1.40745        2.51331       -0.67618
H         -0.03589        3.59480       -0.62252
S          3.68331        0.13791       -0.24353
O          5.09289        0.44814       -0.11772
O          2.86367        0.85538       -1.21551
O          3.04297        0.32124        1.20250
H          2.05019        0.43640        1.14252
C          3.49492       -1.60687       -0.53395
H          4.00854       -2.13694        0.26854
H          2.42610       -1.84644       -0.56920
H          3.96806       -1.81909       -1.49409
H         -4.80577        1.69116       -0.00181
H         -5.95315        0.59857       -0.78216
H         -4.97891       -0.37884        1.32840
H         -4.64364       -1.36595       -0.11977
H         -2.74769        0.57685        1.11450
H         -2.51078       -1.09769        1.08969
H         -4.63430        1.04646       -2.57143
H         -3.24999        1.23730       -1.71140
C         -4.89488        0.73964       -0.54653
C         -4.46035       -0.40568        0.36727
N         -4.11259        0.70261       -1.77639
N         -3.00875       -0.29199        0.60900
H         -1.87642       -2.52789       -0.99601
H         -0.74138       -3.83922       -1.30956
H         -1.51332       -4.00175        0.95749
H          0.22251       -3.62809        0.93181
H         -1.04923       -2.30952        2.54216
H         -0.36461       -1.32793        1.43980
H          0.34062       -2.04601       -2.18308
H         -0.04553       -1.01092       -0.99989
C         -0.86198       -2.89786       -0.76338
C         -0.77741       -3.22402        0.72416
N          0.19676       -1.98468       -1.18111
N         -1.08035       -2.05190        1.56022
