32
2msa2ma_00.log	Energy: -953981.9876195
S         -2.57281       -0.00007       -0.17438
O         -2.39093       -1.24492       -0.96813
O         -2.39099        1.24460       -0.96842
O         -1.72644        0.00011        1.05074
C         -4.27507       -0.00004        0.35595
H         -4.90383       -0.00017       -0.53474
H         -4.44887       -0.89751        0.94962
H         -4.44891        0.89759        0.94938
S          2.57280        0.00004       -0.17437
O          2.39091        1.24480       -0.96827
O          2.39096       -1.24473       -0.96826
O          1.72646       -0.00001        1.05077
C          4.27508        0.00008        0.35591
H          4.44895       -0.89747        0.94945
H          4.90381        0.00010       -0.53480
H          4.44889        0.89763        0.94945
N          0.00008       -2.14829        0.05715
C          0.00018       -3.50142        0.64206
H          0.00011       -1.42011        0.78338
H          0.85926       -1.95727       -0.50267
H         -0.85919       -1.95733       -0.50256
N         -0.00010        2.14831        0.05687
H         -0.00021        1.42024        0.78321
H         -0.85927        1.95727       -0.50295
C         -0.00013        3.50153        0.64159
H          0.85918        1.95723       -0.50279
H          0.00011       -4.23919       -0.15978
H         -0.89253       -3.62605        1.25467
H          0.89301       -3.62601        1.25448
H          0.00003        4.23919       -0.16036
H          0.89255        3.62618        1.25422
H         -0.89298        3.62627        1.25395
