37
2msa1ma1eda_349.log	Energy: -1013358.0430130
S          1.11904        1.82707        0.12824
O          2.19853        1.26521        0.97028
O         -0.17041        1.98706        0.88047
O          0.93454        1.10818       -1.15195
C          1.60788        3.49506       -0.27906
H          1.71967        4.05091        0.65196
H          2.55549        3.45157       -0.81673
H          0.82944        3.93559       -0.90217
S         -2.80165       -0.23510       -0.13180
O         -2.90377       -0.85427        1.18812
O         -2.01683       -0.95933       -1.13525
O         -2.36023        1.25722       -0.03580
H         -1.40230        1.46704        0.34185
C         -4.43980        0.00605       -0.77904
H         -4.88349       -0.98302       -0.89633
H         -5.00846        0.60309       -0.06683
H         -4.35785        0.51129       -1.74079
N          3.37226       -0.89745       -0.80532
H          3.64181       -0.38286       -1.63866
C          4.47974       -1.72735       -0.32876
H          5.38443       -1.15742       -0.08257
H          4.16702       -2.26302        0.57227
H          4.73804       -2.47313       -1.08566
H          3.12278       -0.18250       -0.11403
H         -0.68595       -2.97273       -0.15319
H          0.94204       -3.68458       -0.35488
H          0.46843       -3.06386        2.04613
H          1.83783       -2.16494        1.38757
H         -0.81805       -1.05446        1.90484
H          0.68811       -0.34603        2.06160
H          0.31748       -1.86252       -1.96498
H          0.29199       -0.82139       -0.69662
C          0.38705       -2.78319       -0.08157
C          0.75114       -2.28769        1.32169
N          0.70944       -1.70311       -1.04059
N          0.12508       -1.00218        1.53720
H          1.75526       -1.50911       -1.08140
