41
2msa1dma1tma_138.log	Energy: -1027936.3611758
S          2.36890       -0.01237        0.74030
O          3.49343        0.91922        0.80489
O          2.37058       -0.80755       -0.54346
O          1.03090        0.62524        0.93527
H          0.42385        1.34780       -0.35623
C          2.51425       -1.20414        2.05296
H          3.45290       -1.74135        1.91608
H          2.51394       -0.66208        2.99888
H          1.65419       -1.87307        1.99036
S         -0.87860       -1.93677       -0.50164
O         -1.48316       -0.67370       -0.94897
O         -0.67886       -2.11982        0.92738
O          0.44850       -2.18613       -1.29471
H          1.25120       -1.60769       -0.93240
C         -1.86846       -3.26980       -1.13325
H         -2.84166       -3.19033       -0.64746
H         -1.96278       -3.15519       -2.21258
H         -1.38249       -4.21031       -0.87590
N         -3.18804        0.64741        1.27971
C         -2.12197        0.97234        2.20728
C         -4.08040        1.75151        1.00745
H         -2.79507        0.26328        0.42753
H         -2.53697        1.12597        3.21059
H         -1.40471        0.15029        2.24338
H         -1.56454        1.89096        1.93753
H         -4.62406        2.02249        1.92008
H         -3.56948        2.67028        0.65298
H         -4.81892        1.45994        0.25492
N          0.28244        2.01634       -1.17027
C          0.58510        1.27229       -2.41965
H          1.57536        0.82486       -2.32212
H         -0.15750        0.48342       -2.53353
H          0.55254        1.96732       -3.26213
C         -1.11342        2.50835       -1.13522
H         -1.78191        1.65649       -1.25182
H         -1.29285        2.98072       -0.16878
H         -1.26165        3.23231       -1.94023
C          1.26813        3.10008       -0.92863
H          1.03269        3.58029        0.02115
H          2.26343        2.65847       -0.85812
H          1.21817        3.82324       -1.74573
