28
2msa1dma_34.log	Energy: -918461.9333536
S         -1.02383        0.41663       -0.09467
O         -0.17967       -0.74727       -0.46049
O         -1.67833        0.29215        1.22207
O         -2.05079        0.68130       -1.17123
H         -3.33720        0.07447       -0.78365
C          0.02381        1.85155       -0.07375
H          0.76955        1.71623        0.71209
H          0.51530        1.92983       -1.04401
H         -0.60223        2.72157        0.12435
S          3.19684       -0.06605        0.04066
O          2.89219        0.70583        1.23985
O          3.15377        0.62417       -1.24055
O          2.29503       -1.37039       -0.00650
H          1.32831       -1.12569       -0.15819
C          4.77775       -0.85344        0.24019
H          5.51880       -0.05523        0.29140
H          4.76480       -1.42787        1.16589
H          4.95874       -1.49326       -0.62286
N         -4.25257       -0.40204       -0.40557
C         -4.79933        0.45489        0.67292
C         -3.89127       -1.76885        0.04460
H         -4.91167       -0.45563       -1.18032
H         -4.01463        0.57014        1.42213
H         -5.04624        1.42985        0.25218
H         -5.68900       -0.00860        1.10374
H         -3.14398       -1.66852        0.83295
H         -4.77930       -2.28498        0.41421
H         -3.45474       -2.30864       -0.79590
