40
2msa1dma1eda_557.log	Energy: -1038004.8976000
S          1.05627        0.05644        1.20255
O          1.60277       -1.19581        1.74391
O          0.40857       -0.14094       -0.14782
O          2.08490        1.14148        1.06004
H          2.62198        1.01622       -0.43361
C         -0.19534        0.67515        2.29327
H         -0.96956       -0.09020        2.37696
H          0.27592        0.87263        3.25645
H         -0.60731        1.58073        1.83544
S         -2.76190       -1.18341       -0.26446
O         -2.94889        0.03758       -1.04089
O         -2.87908       -1.09338        1.18487
O         -1.39195       -1.87025       -0.66216
H         -0.62488       -1.23642       -0.43823
C         -3.87610       -2.43135       -0.86431
H         -4.88516       -2.07536       -0.65442
H         -3.72249       -2.54890       -1.93637
H         -3.67576       -3.35988       -0.33055
N         -1.36201        2.61820       -0.14206
C         -0.23874        3.28793       -0.76728
C         -2.62512        3.30094       -0.36156
H         -1.43883        1.66874       -0.49633
H         -0.10995        4.28206       -0.32331
H          0.67490        2.71944       -0.57032
H         -0.35495        3.42325       -1.85970
H         -2.61789        4.26718        0.15646
H         -2.84025        3.48941       -1.42876
H         -3.43706        2.69514        0.04623
H          4.64190       -0.20172       -2.28715
H          4.98266        0.89689       -0.92251
H          5.27970       -1.56602       -0.33004
H          4.09507       -0.73398        0.68349
H          3.56225       -2.87254       -1.11989
H          2.58952       -2.18917        0.03665
H          2.81438        1.33163       -2.10938
H          2.31096       -0.16751       -1.54771
C          4.32649        0.10339       -1.28591
C          4.29054       -1.09605       -0.33027
N          2.94252        0.63411       -1.38088
N          3.22291       -2.00085       -0.73706
