40
2msa1dma1eda_359.log	Energy: -1038014.8069032
S         -1.33771        1.86853       -0.12266
O         -2.50939        1.66705        0.77940
O         -1.49225        1.14732       -1.40274
O         -0.04288        1.56039        0.55523
H          0.44672        0.13355        0.80924
C         -1.27332        3.61310       -0.46880
H         -2.20533        3.89329       -0.95961
H         -1.15775        4.14218        0.47696
H         -0.42067        3.79633       -1.12270
S          0.58477       -1.87859       -0.08058
O          1.48333       -2.98158        0.18316
O          0.88447       -0.76791        1.00340
O         -0.86079       -2.17597       -0.06531
H         -2.30312       -1.32022        0.12386
C          0.97336       -1.09589       -1.62157
H          2.03024       -0.80622       -1.56130
H          0.80857       -1.84617       -2.39688
H          0.29925       -0.24513       -1.75304
N         -3.24149       -0.89289        0.27352
C         -3.91553       -1.59389        1.38371
C         -3.97525       -0.90639       -1.01011
H         -3.04678        0.10610        0.53894
H         -4.05742       -2.64253        1.11856
H         -3.28817       -1.52421        2.27224
H         -4.88056       -1.12211        1.57478
H         -4.09466       -1.93741       -1.34661
H         -4.95252       -0.44187       -0.86860
H         -3.38876       -0.33244       -1.72798
H          5.59632        0.64008        0.03769
H          4.74983        1.13842       -1.44411
H          4.06654        2.46700        0.49549
H          2.69482        1.56817       -0.17495
H          3.12289        1.54702        2.34969
H          2.78812        0.11971        1.65670
H          4.72854       -1.23234       -1.29617
H          4.02255       -1.20554        0.16623
C          4.62105        0.64753       -0.47227
C          3.64680        1.46302        0.36904
N          4.09407       -0.69783       -0.71212
N          3.47967        0.86302        1.69264
