42
2msa2eda_69.log	Energy: -1072769.1348958
S          2.20556       -1.68683       -0.18427
O          1.25917       -2.74509        0.26849
O          2.90780       -0.98655        0.89989
O          1.52297       -0.74642       -1.13441
C          3.44716       -2.53409       -1.14851
H          3.94194       -3.25515       -0.49741
H          2.95699       -3.03881       -1.98110
H          4.16040       -1.79408       -1.51241
S         -2.13839        1.48022       -0.56775
O         -1.33106        2.65525       -0.98625
O         -1.48175        0.77863        0.59119
O         -2.46344        0.54104       -1.65559
C         -3.68013        2.11474        0.06162
H         -3.46250        2.81312        0.86985
H         -4.19575        2.61901       -0.75608
H         -4.26167        1.26541        0.42406
H          0.91348        3.03399        1.23857
H          0.95328        1.27980        1.48549
H          3.03375        2.40075        2.38450
H          3.37800        1.22184        1.11483
H          3.42095        4.14180        0.80486
H          4.55054        3.04509        0.36199
H          0.33715        2.21910       -0.79558
H          2.00970        2.48618       -0.94057
C          1.44035        2.11187        0.97792
C          2.92488        2.19689        1.31164
N          1.28701        1.91688       -0.48597
N          3.55384        3.20122        0.44858
H          1.42170        0.91110       -0.74714
H         -3.23951       -1.98112       -0.75320
H         -2.30045       -3.49904       -0.68031
H         -3.50732       -3.40572        1.35951
H         -1.84701       -2.97069        1.77541
H         -3.55864       -1.48287        2.74393
H         -2.64669       -0.60583        1.69803
H         -1.05740       -1.50015       -1.44628
H         -1.21002       -0.82162        0.01840
C         -2.43487       -2.50942       -0.23760
C         -2.75072       -2.62263        1.24796
N         -1.18109       -1.74718       -0.46380
N         -3.30773       -1.37762        1.76761
H         -0.31943       -2.24844       -0.14676
