37
2msa1ma1eda_531.log	Energy: -1013349.3384088
S         -2.10011        0.95357       -0.48599
O         -1.35930        1.88753        0.38516
O         -3.00397        0.01857        0.15849
O         -1.11416        0.20263       -1.42264
H         -0.06954        0.41810       -1.27685
C         -3.03682        1.94107       -1.63052
H         -2.35271        2.60607       -2.15716
H         -3.53723        1.26656       -2.32519
H         -3.76630        2.50732       -1.05087
S          2.41766       -0.10106       -0.80397
O          3.62550        0.22370       -1.54801
O          1.24549        0.77981       -1.20335
O          2.57296       -0.02966        0.68857
H          1.78326        1.26555        1.16927
C          1.93858       -1.76932       -1.18729
H          1.83635       -1.84025       -2.27078
H          2.73791       -2.42533       -0.84074
H          0.99264       -2.00829       -0.69666
N          1.17521        2.10979        1.39752
H          1.60950        2.91687        0.95373
C          0.99376        2.29563        2.85110
H          0.33778        3.14575        3.03782
H          0.53758        1.39279        3.25699
H          1.96299        2.45442        3.32342
H          0.26182        1.95440        0.92302
H         -2.51686       -2.54342        1.25691
H         -1.74080       -4.13515        1.17549
H         -0.60392       -2.77277        2.83245
H          0.47476       -3.09593        1.46506
H         -0.89040       -0.55631        1.97593
H          0.73540       -0.84770        1.76111
H         -2.03736       -3.39683       -1.02652
H         -1.34458       -1.95091       -0.73240
C         -1.60102       -3.07258        0.94646
C         -0.42721       -2.55324        1.76761
N         -1.31898       -2.93524       -0.47957
N         -0.20294       -1.13242        1.50138
