40
2msa1dma1eda_295.log	Energy: -1038019.0111163
S         -0.03532        2.17624       -0.17463
O          0.45462        1.48663       -1.41568
O          0.81207        1.88614        0.99800
O         -1.47649        1.88733        0.03955
C          0.09163        3.92226       -0.50287
H          1.14204        4.15498       -0.67854
H         -0.50855        4.14969       -1.38372
H         -0.28163        4.45594        0.37126
S          2.51069       -1.18741       -0.51477
O          3.47895       -2.16442       -0.96277
O          1.12300       -1.63306       -0.30523
O          2.52346        0.00796       -1.53633
H          1.70578        0.61381       -1.44930
C          3.06125       -0.44700        1.00424
H          3.04544       -1.22539        1.76819
H          4.07617       -0.08153        0.84748
H          2.37840        0.37059        1.24813
N         -0.87260       -0.50448        2.16555
C         -0.23798       -1.62244        2.84329
C         -1.83393        0.20115        2.99837
H         -0.16466        0.16062        1.86203
H         -0.99361       -2.37531        3.09972
H          0.48545       -2.08912        2.16938
H          0.27342       -1.33822        3.77975
H         -2.68327       -0.45714        3.22238
H         -1.41372        0.54069        3.96069
H         -2.20312        1.07328        2.45303
H         -2.15395       -2.74756       -0.74583
H         -2.36539       -1.78373        0.73978
H         -4.56548       -2.11006       -0.45605
H         -4.09937       -0.40745       -0.39509
H         -3.92588       -2.13642       -2.74899
H         -4.55951       -0.63209       -2.61925
H         -0.49464       -1.05997       -0.65636
H         -1.61404       -0.62088       -1.83683
C         -2.44793       -1.77213       -0.34818
C         -3.83797       -1.37750       -0.83015
N         -1.47423       -0.77227       -0.83403
N         -3.82166       -1.23999       -2.28617
H         -1.60168        0.15060       -0.36722
