40
2msa1dma1eda_562.log	Energy: -1038004.9555756
S         -1.52685       -1.67196        0.38204
O         -0.81479       -1.41603       -0.91426
O         -2.93054       -2.05277        0.17605
O         -1.40193       -0.48391        1.29666
H         -2.60177        0.45847        0.93283
C         -0.65100       -2.99371        1.18031
H         -0.70327       -3.86571        0.52780
H          0.38218       -2.66776        1.31895
H         -1.13952       -3.19078        2.13460
S          2.60722       -0.84396       -0.39654
O          3.17996       -1.81000       -1.31913
O          2.19708       -1.30816        0.92582
O          1.37618       -0.09388       -1.08059
H          0.53565       -0.65730       -1.00170
C          3.70754        0.53720       -0.22615
H          4.61474        0.14835        0.23833
H          3.92630        0.91921       -1.22362
H          3.23013        1.29777        0.40187
N          1.74752        2.81415        1.21277
C          0.77462        1.94340        1.85570
C          1.27894        3.34397       -0.05568
H          2.00278        3.57261        1.83483
H          0.57357        1.07347        1.22592
H          1.17311        1.57107        2.80211
H         -0.19064        2.44564        2.05686
H          1.19067        2.52326       -0.77553
H          0.29476        3.84571        0.01392
H          2.00177        4.06402       -0.44945
H         -3.49673        2.89829       -0.56839
H         -2.15397        2.79428        0.60570
H         -1.41776        2.61577       -1.85259
H         -0.91056        1.27604       -0.82651
H         -2.68399        1.11442       -3.04298
H         -2.01646       -0.10402       -2.13577
H         -4.11294        1.27146        1.06391
H         -3.67334        0.47808       -0.35305
C         -2.70623        2.25779       -0.16853
C         -1.78097        1.75367       -1.28448
N         -3.34204        1.05989        0.43631
N         -2.50485        0.78829       -2.10328
