34
2msa1a1eda_280.log	Energy: -988692.9621939
S         -1.86325       -1.45892       -0.09538
O         -2.85048       -0.38836        0.22405
O         -1.32655       -2.14091        1.09906
O         -0.78491       -0.93410       -0.98864
C         -2.74878       -2.68914       -1.03824
H         -3.55296       -3.07557       -0.41185
H         -3.15008       -2.21549       -1.93423
H         -2.04998       -3.48410       -1.29960
S          2.75554       -0.05826       -0.24924
O          1.93877        1.13353       -0.38343
O          2.95604       -0.65073        1.06711
O          4.23519        0.30420       -0.81793
H          4.87661        0.11611       -0.11772
C          2.22326       -1.27222       -1.41878
H          2.33238       -0.84056       -2.41401
H          2.84381       -2.15935       -1.29602
H          1.16440       -1.46397       -1.20297
N          0.35957       -0.20786        2.76814
H          0.23112       -0.14665        3.77228
H          1.33993       -0.40762        2.58276
H         -0.18003       -1.00868        2.42529
H         -1.13597        3.34503        1.34285
H          0.34541        3.10794        0.36705
H         -1.45472        4.20073       -0.95245
H         -1.01695        2.62784       -1.62924
H         -3.49991        3.19341       -1.26371
H         -3.04185        1.73588       -0.67151
H         -0.23896        1.03564        1.63105
H         -1.71124        1.01536        0.83602
C         -0.70211        2.82488        0.48637
C         -1.50553        3.12251       -0.77410
N         -0.74356        1.37489        0.76498
N         -2.89966        2.74104       -0.58570
H         -0.33768        0.83725       -0.01534
