40
2msa1dma1eda_111.log	Energy: -1038023.6218111
S          2.51007       -0.46513        0.61566
O          3.06488        0.02091       -0.65484
O          1.71074       -1.73191        0.46707
O          1.73499        0.56135        1.36494
C          3.88529       -0.91861        1.65409
H          4.49641       -0.02921        1.80838
H          3.49341       -1.29033        2.60074
H          4.45428       -1.69241        1.13859
S         -1.47998       -1.76609       -0.69624
O         -0.90691       -0.82754       -1.65773
O         -2.91199       -1.68976       -0.43526
O         -0.76571       -1.62111        0.69474
H          0.27721       -1.63710        0.61437
C         -1.05353       -3.41240       -1.21456
H          0.03353       -3.46567       -1.29226
H         -1.43281       -4.11466       -0.47263
H         -1.52014       -3.57950       -2.18574
N         -2.88196        1.15109        0.83246
C         -3.86884        2.20364        0.61692
C         -2.65022        0.86325        2.24713
H         -3.18692        0.29332        0.37280
H         -3.49098        3.14736        1.02559
H         -4.03615        2.33696       -0.45489
H         -4.83487        1.98959        1.09837
H         -2.20519        1.74045        2.72967
H         -3.57585        0.60924        2.78412
H         -1.95134        0.02819        2.33094
H         -0.65882        3.41148       -1.18718
H          0.03628        3.56037        0.44804
H          1.70850        4.04186       -1.40289
H          2.20017        2.72337       -0.33267
H          1.83336        2.53245       -3.08703
H          2.12855        1.29960       -2.02429
H         -1.30180        1.48493        0.15497
H         -0.23452        1.04510       -1.07651
C          0.07416        2.99851       -0.48898
C          1.47692        3.01435       -1.10307
N         -0.30989        1.59877       -0.21121
N          1.52578        2.09287       -2.23111
H          0.35791        1.17692        0.46737
