30
2msa1eda_104.log	Energy: -953195.9506216
S         -1.50979        1.52223       -0.08946
O         -2.29144        0.58373       -0.92163
O         -0.60137        2.41946       -0.81180
O         -0.79977        0.78458        1.02874
C         -2.70026        2.55590        0.75340
H         -2.15857        3.24003        1.40682
H         -3.25504        3.10936       -0.00486
H         -3.36978        1.91891        1.33176
S          2.57789       -0.11956       -0.03242
O          2.51153       -0.91433        1.18539
O          1.80116       -0.55525       -1.18476
O          4.13328       -0.08558       -0.49338
H          4.17136       -0.31220       -1.43390
C          2.27259        1.57712        0.35273
H          3.02454        1.89353        1.07560
H          2.31331        2.15370       -0.57058
H          1.26078        1.61288        0.76629
H         -1.00842       -3.70674        0.82392
H         -1.58504       -2.52377        2.02839
H         -3.31950       -3.18119        0.23900
H         -3.02341       -1.44118        0.38564
H         -2.65322       -2.95013       -1.91756
H         -2.24223       -1.36601       -1.65416
H          0.62137       -1.94541        1.01333
H         -0.16478       -1.83661       -0.45177
C         -1.36497       -2.68383        0.97075
C         -2.57733       -2.39287        0.07917
N         -0.28030       -1.76126        0.56816
N         -2.14538       -2.32010       -1.31263
H         -0.52873       -0.73716        0.76662
