43
2msa1eda1tma_142.log	Energy: -1062678.2052377
S         -3.15892        0.26086       -0.45981
O         -2.80859        1.43376       -1.25471
O         -2.82457        0.30776        0.96599
O         -2.58371       -1.04386       -1.10951
H         -1.54666       -1.10087       -0.95994
C         -4.89643       -0.06149       -0.63886
H         -5.42116        0.80216       -0.22956
H         -5.11491       -0.18034       -1.69967
H         -5.14162       -0.96492       -0.08145
S          0.47975       -1.99734        0.38457
O          1.25670       -3.06903       -0.23537
O         -0.14447       -1.07295       -0.66438
O          1.20170       -1.18269        1.38308
H          0.95760        0.99375        1.12219
C         -0.91772       -2.72990        1.21866
H         -1.47589       -3.33065        0.49977
H         -0.52517       -3.35899        2.01797
H         -1.53883       -1.92728        1.61995
H         -1.28451        2.64749       -0.11558
H         -0.65684        4.11773        0.62423
H          0.93541        3.00375       -1.04239
H          1.63640        3.26032        0.57131
H          0.52068        0.67171       -0.40314
H          2.14373        1.01237       -0.08980
H         -0.78611        3.06234        2.63809
H         -1.46348        1.75161        1.89439
C         -0.53028        3.03036        0.57855
C          0.86085        2.72816        0.01245
N         -0.67887        2.39698        1.88517
N          1.13949        1.28653        0.15256
N          3.72922        0.46666       -0.48314
C          4.26348       -0.10824        0.75300
H          4.36372        0.67800        1.50775
H          3.56614       -0.86117        1.12716
H          5.25282       -0.56673        0.59193
C          3.55389       -0.56927       -1.50395
H          2.91780       -1.37035       -1.12058
H          3.07488       -0.13720       -2.38758
H          4.52075       -1.00339       -1.80665
C          4.57422        1.54927       -0.97434
H          4.13272        1.98456       -1.87597
H          4.65515        2.33154       -0.21346
H          5.59072        1.19968       -1.22097
