42
2msa2eda_455.log	Energy: -1072747.2069037
S         -1.30879       -1.67656       -0.86824
O         -2.09074       -2.87705       -0.59662
O         -0.56339       -1.20492        0.37201
O         -2.08472       -0.53424       -1.43659
H         -2.22801        0.81982       -0.55836
C         -0.04551       -2.05119       -2.06315
H          0.59685       -2.82813       -1.64794
H         -0.54331       -2.39844       -2.96895
H          0.52075       -1.13676       -2.24501
S          0.90697        1.89854       -0.62320
O         -0.09677        2.95179       -0.79957
O          1.18634        1.02272       -1.75129
O          0.47549        1.04062        0.63847
H          0.11740        0.08874        0.41626
C          2.41179        2.62046       -0.03396
H          2.74209        3.32253       -0.80107
H          2.19656        3.14335        0.89805
H          3.13520        1.80397        0.09870
H         -3.94334        2.25338        1.41091
H         -4.49478        1.42298       -0.07143
H         -4.68542        0.01611        2.07193
H         -3.75968       -0.73975        0.77610
H         -2.80883       -0.13233        3.33132
H         -1.92340       -0.68600        2.04992
H         -2.20274        2.48704       -0.28152
H         -1.72215        1.44725        0.90842
C         -3.75843        1.41546        0.73433
C         -3.75702        0.08391        1.49770
N         -2.40781        1.58530        0.15132
N         -2.57936        0.02635        2.36030
H          4.93419       -1.79267        1.15491
H          4.77783       -0.24614        2.00423
H          2.97997       -1.72649        2.70465
H          2.30185       -0.38410        1.77059
H          2.58101       -3.13698        0.85927
H          1.28692       -2.12259        0.75301
H          5.12378       -0.05129       -0.46038
H          3.61189       -0.66114       -0.64270
C          4.31577       -0.88316        1.24076
C          2.91724       -1.28671        1.69778
N          4.21794       -0.13776       -0.01272
N          2.30093       -2.17360        0.71256
