35
2msa1ma1dma_339.log	Energy: -978605.9450888
S         -1.42202       -0.96702       -0.99770
O         -1.67080       -2.30779       -1.49938
O         -0.77123       -0.88616        0.33631
O         -2.74622       -0.13673       -0.90077
H         -3.26049       -0.35614        0.00839
C         -0.49040       -0.01539       -2.15610
H          0.47005       -0.52103       -2.27527
H         -1.04965        0.00409       -3.09183
H         -0.34181        0.98503       -1.72600
S          2.65594       -0.53854        0.32570
O          2.54721        0.83926        0.79112
O          2.53613       -0.78738       -1.10429
O          1.64298       -1.46690        1.12140
H          0.70544       -1.30515        0.80017
C          4.17505       -1.23158        0.92994
H          4.98262       -0.67817        0.44966
H          4.20861       -1.10204        2.01121
H          4.20962       -2.28482        0.65353
N         -3.89820       -0.66005        1.33217
H         -4.89253       -0.45174        1.33574
C         -3.19471        0.08309        2.39210
H         -3.56476       -0.15426        3.39441
H         -2.13180       -0.15460        2.32626
H         -3.31525        1.15297        2.21112
H         -3.80466       -1.66214        1.47886
N          0.23429        2.60118       -0.34158
C         -0.73781        2.60029        0.73769
C          0.51092        3.93015       -0.85670
H          1.09379        2.16542       -0.01679
H         -1.71521        2.91413        0.35129
H         -0.83861        1.58411        1.12652
H         -0.46955        3.27392        1.57117
H         -0.39381        4.34176       -1.31900
H          0.84445        4.64291       -0.08164
H          1.28531        3.87318       -1.62645
