42
2msa2eda_15.log	Energy: -1072771.4133575
S         -3.15837       -0.03960        0.30640
O         -2.40520        0.02622       -0.97079
O         -2.92573        1.17098        1.14336
O         -2.92022       -1.31243        1.04060
C         -4.89556       -0.03411       -0.09620
H         -5.11676        0.88641       -0.63649
H         -5.10487       -0.90686       -0.71486
H         -5.45794       -0.07886        0.83660
S          2.63789       -0.05705        0.53758
O          2.91322        0.71320       -0.68807
O          3.02458       -1.47605        0.49967
O          1.19592        0.09913        0.97356
C          3.58678        0.69990        1.84810
H          4.64249        0.60066        1.59416
H          3.30866        1.75201        1.92010
H          3.36486        0.17853        2.77926
H         -1.14868       -3.29858       -1.14948
H         -0.82081       -1.60587       -1.56638
H          0.86982       -3.34345       -2.50153
H          1.59870       -2.01644       -1.59731
H          1.79459       -4.72340       -0.96405
H          2.36106       -3.42735       -0.11045
H         -1.33948       -1.94298        0.77052
H          0.05440       -2.94822        0.87956
C         -0.43304       -2.47951       -1.04103
C          0.96112       -2.90139       -1.50433
N         -0.38192       -2.15033        0.40608
N          1.53948       -3.84087       -0.54231
H          0.21633       -1.31782        0.59326
H         -0.86577        4.00283       -0.48806
H          0.03262        3.76937        1.02724
H          1.46454        4.54424       -0.95470
H          2.03715        3.07475       -0.16259
H          1.30819        3.29692       -2.83997
H          1.76304        1.94582       -2.00431
H         -1.44850        1.86707        0.54860
H         -0.70561        1.67990       -0.92064
C         -0.08510        3.41462        0.00053
C          1.23110        3.48896       -0.77858
N         -0.54957        2.01284        0.03710
N          1.12116        2.73418       -2.02169
H          0.16312        1.36774        0.44602
