32
2msa1a1dma_59.log	Energy: -953966.8625266
S         -2.63633        0.11131       -0.04505
O         -3.63038        1.00016       -0.60785
O         -2.02265        0.49066        1.23748
O         -1.51848       -0.10534       -1.12435
H         -0.79398       -0.76905       -0.80351
C         -3.31967       -1.51719        0.17370
H         -4.08552       -1.44920        0.94673
H         -3.75296       -1.83205       -0.77545
H         -2.51185       -2.18411        0.47957
S          1.58271       -1.51909       -0.07726
O          2.07971       -0.50374       -1.01677
O          0.11884       -1.80783       -0.26823
O          1.88985       -1.21409        1.34696
H          1.15439        0.24275        1.81482
C          2.40384       -3.05863       -0.43540
H          3.47296       -2.90767       -0.28539
H          2.02139       -3.81903        0.24519
H          2.19228       -3.31943       -1.47237
N          0.60128        1.12434        1.94489
H         -0.38800        0.91025        1.72343
H          0.95522        1.87777        1.25878
H          0.67258        1.44610        2.90553
N          1.46747        2.91845        0.03244
C          0.64130        2.58116       -1.13568
C          2.89314        2.66638       -0.20764
H          1.33501        3.90024        0.25835
H          0.76994        1.51978       -1.35934
H         -0.41196        2.76591       -0.91119
H          0.92449        3.16093       -2.02513
H          3.03038        1.59799       -0.39530
H          3.27560        3.22409       -1.07407
H          3.47006        2.95077        0.67701
