38
2msa1ma1tma_51.log	Energy: -1003281.9176713
S          2.90494        0.18799        0.30114
O          2.35665        1.54145        0.19135
O          3.00216       -0.59557       -0.92349
O          2.14092       -0.61425        1.41411
H          1.16700       -0.84582        1.12787
C          4.50410        0.29257        1.06868
H          4.89353       -0.71684        1.19749
H          5.13865        0.86978        0.39561
H          4.39474        0.79903        2.02710
S         -0.76062       -1.63366       -0.51008
O         -2.05230       -2.30830       -0.35420
O         -0.22178       -1.14288        0.80806
O         -0.77232       -0.51867       -1.50388
H         -0.91361        0.94250       -0.86089
C          0.41865       -2.81506       -1.12922
H          0.49123       -3.62597       -0.40382
H          0.04383       -3.18612       -2.08346
H          1.37694       -2.30738       -1.25627
N         -3.50554       -0.13272        1.28275
H         -3.20596       -0.91525        0.70057
C         -4.96368       -0.09932        1.37959
H         -5.41424       -1.01890        1.77965
H         -5.27480        0.73527        2.01602
H         -5.38796        0.07078        0.38504
H         -3.09850       -0.31069        2.19574
N         -1.08955        1.95614       -0.60772
C         -2.51884        2.20440       -0.91757
H         -2.69552        1.96015       -1.96577
H         -3.11392        1.55676       -0.26709
H         -2.74411        3.25796       -0.73244
C         -0.81327        2.12976        0.84095
H         -1.46107        1.44441        1.38756
H          0.23667        1.90196        1.02179
H         -1.03018        3.16614        1.11367
C         -0.17580        2.76183       -1.45190
H          0.85113        2.48713       -1.20832
H         -0.38394        2.54003       -2.49935
H         -0.34693        3.82253       -1.25175
