38
2msa2dma_200.log	Energy: -1003274.9104488
S         -2.81277       -0.09361        0.35806
O         -3.94498       -0.82878        0.88072
O         -2.14409       -0.56984       -0.85511
O         -1.73830        0.00612        1.51942
H         -0.84623        0.29261        1.13881
C         -3.27067        1.60616        0.09656
H         -4.00053        1.62177       -0.71377
H         -3.71341        1.97985        1.01978
H         -2.37314        2.17221       -0.16654
S          0.78120        1.68100       -0.51468
O         -0.13046        2.81864       -0.41952
O          0.55278        0.62731        0.53251
O          2.24017        2.03572       -0.50352
H          3.03839        0.98398        0.29197
C          0.49737        0.88784       -2.08647
H         -0.54717        0.57356       -2.11840
H          0.71945        1.61387       -2.86889
H          1.15305        0.01827       -2.15527
N          3.59450        0.18932        0.76418
C          3.49187       -1.00970       -0.10752
C          3.08137       -0.02295        2.13916
H          4.56327        0.50274        0.80624
H          2.43423       -1.28171       -0.23296
H          3.92114       -0.76441       -1.07987
H          4.04305       -1.83634        0.34558
H          2.02292       -0.26325        2.05732
H          3.63619       -0.83276        2.61628
H          3.19636        0.90357        2.70185
N          0.48818       -2.28321       -0.64680
C          0.34252       -2.83866        0.69101
C          0.28296       -3.28526       -1.68301
H         -0.21915       -1.55970       -0.75496
H          1.14512       -3.56234        0.88202
H          0.41615       -2.03504        1.42918
H         -0.62045       -3.35042        0.84870
H          1.07577       -4.04062       -1.62958
H         -0.68644       -3.80331       -1.60015
H          0.33436       -2.81149       -2.66751
