42
2msa2eda_510.log	Energy: -1072743.8592473
S         -0.99196        2.16326        0.49217
O          0.37782        2.24196        1.04814
O         -2.00160        1.64935        1.43369
O         -1.00957        1.41636       -0.81458
C         -1.46829        3.83501        0.07339
H         -1.45881        4.42429        0.99080
H         -0.75055        4.22937       -0.64635
H         -2.47042        3.81010       -0.35547
S          3.19268       -0.09940       -0.46734
O          3.28805       -0.63985        0.87499
O          2.21782       -0.65929       -1.39805
O          4.64656       -0.28386       -1.17069
H          4.51456       -0.75763       -2.00445
C          3.05165        1.65904       -0.39484
H          2.09246        1.88291        0.09440
H          3.88940        2.03516        0.19265
H          3.07257        2.04238       -1.41480
H          0.57659       -0.43188        1.48340
H         -1.12712       -0.77363        1.74012
H          0.32531       -2.44396        2.89374
H         -0.69099       -3.22043        1.67100
H          2.13097       -2.51322        1.24333
H          1.48556       -4.02526        1.30920
H         -0.60439       -0.24371       -0.54881
H          0.42788       -1.57259       -0.63179
C         -0.21383       -1.15970        1.28318
C          0.15518       -2.53744        1.81117
N         -0.41926       -1.20867       -0.18590
N          1.29330       -3.06185        1.06379
H         -1.23937       -1.82052       -0.42931
H         -4.89950       -2.36620       -0.84102
H         -4.04603       -2.42369        0.71100
H         -4.80042       -0.10696        0.06374
H         -3.08408       -0.21412        0.37203
H         -4.32814        0.31988       -2.15313
H         -2.80969        0.67368       -1.60306
H         -2.84492       -3.64058       -1.01440
H         -2.76066       -2.25951       -1.90752
C         -3.97960       -2.06011       -0.32014
C         -3.86606       -0.53395       -0.32343
N         -2.78363       -2.62945       -0.95691
N         -3.52452       -0.04861       -1.66047
