41
2msa1dma1tma_63.log	Energy: -1027942.9380461
S          0.30585        1.60107       -0.70216
O         -0.07288        1.02702        0.62829
O         -0.79373        1.59671       -1.67376
O          1.55299        0.93648       -1.19263
C          0.75365        3.29950       -0.39527
H         -0.13054        3.81572       -0.02047
H          1.55201        3.31658        0.34700
H          1.08632        3.73895       -1.33578
S         -3.24000       -0.46479        0.58428
O         -4.40789       -0.87885        1.33372
O         -2.26763       -1.47478        0.16100
O         -2.49595        0.63428        1.44956
H         -1.55994        0.79417        1.11043
C         -3.74870        0.44302       -0.85875
H         -4.25566       -0.26138       -1.51966
H         -4.43483        1.22624       -0.53626
H         -2.85688        0.86250       -1.33120
N          3.53228       -0.03756        0.89466
C          4.98571       -0.06258        0.91854
C          2.95372        0.44658        2.14170
H          3.20150        0.55021        0.13312
H          5.32856       -0.78509        1.66774
H          5.37054       -0.38071       -0.05552
H          5.43926        0.91279        1.16439
H          3.12966       -0.28474        2.93956
H          3.38199        1.40840        2.47344
H          1.87534        0.57295        2.01411
N          1.28737       -1.76063       -0.78631
C          0.19853       -1.99556       -1.77100
H         -0.71741       -1.54245       -1.39094
H          0.48545       -1.53816       -2.71814
H          0.05581       -3.07180       -1.88921
C          2.56787       -2.37201       -1.21231
H          2.83698       -1.97138       -2.19062
H          3.32399       -2.09975       -0.47524
H          2.44323       -3.45547       -1.27212
C          0.89989       -2.18485        0.58459
H          1.71208       -1.91036        1.25716
H         -0.02252       -1.67224        0.85541
H          0.73906       -3.26530        0.58257
H          1.44152       -0.72443       -0.77641
