22
2msa1a_28.log	Energy: -869135.4730423
S         -2.13740       -0.36661       -0.09366
O         -2.77584       -1.60920       -0.45550
O         -1.15175        0.21477       -1.02618
O         -1.45710       -0.48100        1.32976
H         -0.45828       -0.41241        1.26734
C         -3.37143        0.87008        0.21857
H         -3.91310        1.02062       -0.71578
H         -4.03900        0.49266        0.99323
H         -2.87469        1.78633        0.53738
S          2.13387       -0.42915        0.09370
O          3.02696       -1.54447        0.29181
O          1.12012       -0.13570        1.12465
O          1.38014       -0.64271       -1.28966
H          0.44436       -0.31731       -1.25151
C          3.05892        1.05686       -0.17965
H          3.64426        1.23342        0.72390
H          3.71310        0.88510       -1.03454
H          2.34173        1.86688       -0.35170
N          0.29385        2.80787       -0.05180
H          0.20474        2.63109        0.94323
H         -0.31670        2.16004       -0.54164
H         -0.01205        3.75550       -0.24063
