42
2msa2eda_462.log	Energy: -1072747.6575559
S          1.72666       -1.59751       -0.57548
O          0.51118       -2.40557       -0.51859
O          2.27293       -1.07489        0.66922
O          1.51525       -0.43578       -1.61330
H          1.60925        0.51043       -1.18506
C          2.97466       -2.56481       -1.39526
H          3.16498       -3.43986       -0.77299
H          2.59275       -2.86280       -2.37149
H          3.87276       -1.95553       -1.49280
S          0.84766        2.20825        0.51793
O          0.25781        3.54978        0.44839
O          1.66465        1.87389       -0.69614
O         -0.18848        1.14567        0.75336
H         -1.46105        1.58900       -0.13736
C          1.95683        2.10703        1.90148
H          2.74458        2.84617        1.75378
H          1.38992        2.31878        2.80821
H          2.36105        1.09347        1.91796
H         -2.15058        1.89665       -3.00714
H         -0.53930        1.63917       -2.27783
H         -1.63291       -0.51409       -3.19640
H         -1.15161       -0.58514       -1.50886
H         -3.84883       -0.59278       -2.51089
H         -3.21421       -1.14506       -1.06982
H         -2.18584        2.91705       -0.85725
H         -3.03666        1.43269       -0.78924
C         -1.60110        1.39646       -2.20519
C         -1.85497       -0.11451       -2.20161
N         -2.12168        1.90216       -0.90681
N         -3.22047       -0.37356       -1.74821
H         -2.34798       -0.16067        1.23660
H         -3.66414       -1.14468        1.87525
H         -2.05384       -0.64629        3.63013
H         -2.02895       -2.37590        3.31417
H          0.02086       -2.14589        2.18706
H         -0.04770       -0.52019        2.19658
H         -1.41061       -2.17349        0.28321
H         -2.68911       -3.04197        0.81091
C         -2.59691       -1.15769        1.61877
C         -1.76395       -1.39994        2.88627
N         -2.39931       -2.11101        0.52661
N         -0.32082       -1.35112        2.71611
