43
2msa1eda1tma_257.log	Energy: -1062667.9153311
S          1.85944       -1.34280       -0.85565
O          1.30702       -1.60349        0.51829
O          3.22098       -1.84160       -1.02601
O          1.71742        0.12802       -1.16047
H          2.00556        0.92088        0.16792
C          0.78530       -2.17804       -2.00102
H         -0.24351       -1.85912       -1.81997
H          1.11015       -1.92692       -3.01118
H          0.88898       -3.24831       -1.82024
S         -2.23250       -1.37655        0.74976
O         -2.35213       -2.67065        1.39792
O         -2.26062       -1.33819       -0.71351
O         -0.92732       -0.62073        1.25886
H         -0.07380       -1.07151        0.92478
C         -3.45493       -0.25995        1.38358
H         -4.42208       -0.71192        1.15771
H         -3.31706       -0.18101        2.46193
H         -3.35065        0.70481        0.87324
H         -2.17649        3.67968       -1.91772
H         -2.05216        3.85566       -0.15321
H         -0.04148        2.84541       -1.18675
H         -0.79396        1.77440        0.02272
H         -0.09717        0.83144       -2.19826
H         -1.58611        0.43721       -1.71377
H         -4.16992        2.94203       -0.68003
H         -3.50935        1.72146       -1.52937
C         -2.14583        3.12631       -0.96698
C         -0.91980        2.22136       -0.98021
N         -3.35733        2.33656       -0.73338
N         -1.02083        1.22076       -2.03453
N          2.41051        1.42168        1.02446
C          2.44596        2.86586        0.70444
H          2.98573        3.00495       -0.23285
H          1.42319        3.22586        0.59099
H          2.94594        3.40606        1.51191
C          1.55534        1.13137        2.20110
H          0.53680        1.45740        1.98936
H          1.55358        0.05456        2.36592
H          1.95563        1.65682        3.07162
C          3.77436        0.85458        1.18725
H          3.68545       -0.22063        1.34445
H          4.33655        1.02982        0.27006
H          4.26345        1.33177        2.03959
