32
2msa2ma_66.log	Energy: -953964.8511329
S         -1.48137       -1.46218        0.13934
O         -2.61402       -1.06446       -0.71291
O         -1.65483       -1.19197        1.57370
O         -0.19055       -0.83768       -0.37582
C         -1.24556       -3.21788       -0.06568
H         -2.15191       -3.71413        0.28206
H         -1.07691       -3.42057       -1.12326
H         -0.38812       -3.52371        0.53461
S          2.91143        0.31800       -0.15653
O          4.22996        0.45204        0.42324
O          2.06121        1.50382       -0.28030
O          2.14109       -0.78788        0.67304
H          1.18402       -0.87489        0.34357
C          3.03918       -0.42043       -1.77250
H          3.56022        0.28947       -2.41571
H          3.60807       -1.34524       -1.67847
H          2.03017       -0.61296       -2.14048
N         -0.60991        1.82096        0.47655
H         -0.33895        0.91681        0.04303
H         -0.04317        2.53409        0.02220
C         -0.33953        1.76913        1.93308
H         -0.69672        2.68845        2.39811
H         -0.86336        0.90223        2.33698
H          0.73337        1.65961        2.08717
H         -1.65344        1.94606        0.27880
N         -3.32306        1.75399       -0.11420
H         -3.38953        0.73572       -0.04403
C         -3.57821        2.14146       -1.50688
H         -4.59242        1.90099       -1.84612
H         -3.41501        3.21567       -1.63261
H         -2.87544        1.60533       -2.14899
H         -4.01920        2.15461        0.50612
