29
2msa1a1ma_90.log	Energy: -929298.9156270
S         -2.10912       -0.32191       -0.26887
O         -1.05415        0.48103       -0.96327
O         -2.16391       -0.03590        1.18784
O         -1.98839       -1.77460       -0.55300
H         -1.07701       -2.53195        0.86554
C         -3.64857        0.22911       -0.96991
H         -3.74649        1.29726       -0.77607
H         -3.62162        0.03032       -2.04124
H         -4.45554       -0.32600       -0.49166
S          2.30156       -0.59168       -0.22321
O          3.29881       -1.57499       -0.58828
O          1.53668       -0.81480        1.02078
O          1.29848       -0.46314       -1.42800
H          0.38260       -0.09753       -1.18658
C          3.03450        1.01537       -0.09403
H          3.77774        0.96086        0.70271
H          3.51213        1.23350       -1.04963
H          2.23746        1.73271        0.15068
N         -0.62315       -2.24149        1.75337
H         -0.57186       -2.98459        2.44258
H         -1.20811       -1.44127        2.05325
H          0.31714       -1.84990        1.51228
N          0.32494        2.63580        0.72210
H         -0.26960        2.00763        0.18494
C          0.00641        4.02772        0.41482
H         -1.03838        4.31014        0.61341
H          0.65284        4.69182        0.99651
H          0.20900        4.21716       -0.64329
H          0.13372        2.43325        1.69777
