37
2msa1ma1eda_536.log	Energy: -1013348.0465299
S         -2.08307       -1.47590       -0.18531
O         -1.28425       -2.65835       -0.51146
O         -2.62600       -0.70133       -1.29469
O         -1.29673       -0.54943        0.80581
H         -0.49724       -0.05670        0.34471
C         -3.41507       -1.97331        0.88087
H         -4.04853       -2.64431        0.30007
H         -2.99657       -2.48541        1.74661
H         -3.96578       -1.08139        1.17859
S          1.27554        1.80237        0.12755
O          0.88222        2.19841        1.47563
O          0.65947        0.49187       -0.31371
O          2.75612        1.69132       -0.09076
H          3.12838        0.23629       -0.48470
C          0.68714        3.02362       -1.02015
H         -0.40923        3.03509       -0.96651
H          1.11668        3.98258       -0.72779
H          1.02137        2.73928       -2.01845
N         -2.55315        2.44978       -0.67752
H         -3.35170        2.85660       -1.15220
C         -2.69941        2.57044        0.77262
H         -3.56692        2.03546        1.18961
H         -1.79867        2.19240        1.26263
H         -2.79464        3.62730        1.03918
H         -2.51717        1.47173       -0.95610
H          4.27949       -2.32595        0.47663
H          3.75385       -0.90204        1.41087
H          2.17993       -2.94212        1.58154
H          1.39949       -1.45041        1.03817
H          1.99897       -3.76173       -0.60950
H          0.70357       -2.74956       -0.63806
H          4.34445       -0.73459       -1.15615
H          2.75123       -1.27036       -1.26182
C          3.50111       -1.56530        0.58210
C          2.12304       -2.21883        0.75985
N          3.45007       -0.77026       -0.67489
N          1.71481       -2.79314       -0.51780
