41
2msa1dma1tma_35.log	Energy: -1027944.9326853
S          0.00917       -1.67441        0.52415
O          0.27491       -0.72939        1.62358
O          0.18823       -1.04026       -0.82580
O         -1.34034       -2.31049        0.59530
H         -2.35182       -1.35652       -0.30518
C          1.20516       -2.98457        0.63566
H          2.19110       -2.53197        0.51322
H          1.09770       -3.45270        1.61432
H          1.00161       -3.69890       -0.16208
S          3.28769        0.63031       -0.37889
O          4.29349        1.47961       -0.98394
O          3.54528       -0.79341       -0.19597
O          1.95709        0.81102       -1.23229
H          1.31808        0.04784       -1.07054
C          2.82532        1.31292        1.20056
H          3.69765        1.23378        1.85083
H          2.55468        2.35847        1.05155
H          1.99033        0.72760        1.59325
N         -2.92829       -0.62147       -0.79257
C         -4.35345       -0.82933       -0.48393
C         -2.60782       -0.61169       -2.23358
H         -2.61358        0.30880       -0.35447
H         -4.68522       -1.78557       -0.89250
H         -4.48118       -0.83732        0.59929
H         -4.94494       -0.02103       -0.91968
H         -2.94375       -1.54539       -2.68856
H         -3.11048        0.23256       -2.71107
H         -1.52574       -0.52570       -2.33292
N         -2.23925        1.77106        0.42011
C         -0.87454        2.17237        0.06699
H         -0.17811        1.39920        0.39086
H         -0.78448        2.28725       -1.01619
H         -0.60298        3.12654        0.54683
C         -3.20604        2.78791        0.01748
H         -3.13094        2.96183       -1.06008
H         -4.22134        2.45043        0.24912
H         -3.03523        3.74638        0.53402
C         -2.33523        1.48245        1.85374
H         -3.34881        1.14500        2.09333
H         -1.62268        0.69447        2.11127
H         -2.11648        2.37631        2.45988
