30
2msa1eda_35.log	Energy: -953206.4898000
S          2.65018       -0.76811       -0.08857
O          3.85114       -1.46364       -0.49340
O          1.49720       -1.57446        0.35022
O          2.20669        0.15416       -1.28718
H          1.27531        0.54226       -1.16392
C          3.01682        0.38147        1.21478
H          3.30260       -0.20481        2.08896
H          3.84571        1.00534        0.88018
H          2.12396        0.98229        1.40831
S         -0.73947        1.78932        0.12369
O          0.29553        2.18467        1.08295
O         -1.86755        1.00621        0.71344
O         -0.18876        1.04281       -1.06161
H         -1.40620       -1.26561       -1.11416
C         -1.46066        3.27838       -0.53741
H         -1.91248        3.82619        0.28980
H         -0.66126        3.86177       -0.99447
H         -2.21065        3.00327       -1.27866
H         -3.53715       -1.39235        1.41053
H         -4.20930       -2.82060        0.62029
H         -1.71145       -2.96271        1.27447
H         -2.08789       -3.37882       -0.41418
H         -1.38242       -0.61038        0.37205
H         -0.18433       -1.70020       -0.05317
H         -4.82079       -1.32734       -0.95716
H         -3.68569       -0.22116       -0.52795
C         -3.50549       -1.99385        0.49277
C         -2.10146       -2.57943        0.32940
N         -3.85225       -1.21011       -0.69136
N         -1.19901       -1.50332       -0.14227
