40
2msa1dma1eda_66.log	Energy: -1038035.5065142
S         -2.08925       -1.27120       -0.20387
O         -1.42542       -2.48536       -0.74876
O         -2.10350       -0.14137       -1.18219
O         -1.51885       -0.85859        1.10036
C         -3.79735       -1.69700        0.06778
H         -4.22894       -2.00640       -0.88425
H         -3.83573       -2.51029        0.79257
H         -4.30082       -0.80928        0.45320
S          2.69975        0.99225       -0.25113
O          3.22114        0.02980       -1.22910
O          1.81350        0.31230        0.77148
O          2.02326        2.18485       -0.81301
C          4.09384        1.60491        0.68216
H          4.59624        0.75608        1.14635
H          4.76247        2.11203       -0.01394
H          3.72895        2.29992        1.43849
N          1.17361       -2.29025        0.17449
C          2.21486       -2.90402       -0.67552
C          1.03031       -2.89883        1.51414
H          1.39187       -1.27466        0.31168
H          1.95680       -3.94836       -0.85928
H          2.27489       -2.34668       -1.60903
H          3.17724       -2.83394       -0.16756
H          0.80629       -3.96100        1.40288
H          1.96127       -2.76507        2.06707
H          0.20745       -2.39282        2.01991
H          0.24290       -2.35109       -0.29607
H         -1.92112        1.89817        1.69602
H         -0.79380        3.26878        1.51131
H         -2.89086        4.08077        0.75527
H         -1.96703        3.76649       -0.71465
H         -4.26345        2.88097       -0.77238
H         -3.23274        1.60207       -0.80714
H          0.05358        1.08454        0.71622
H         -1.08804        1.07372       -0.47251
C         -1.42865        2.55751        0.97848
C         -2.47279        3.27959        0.13757
N         -0.54010        1.70931        0.14667
N         -3.55859        2.38355       -0.24081
H          0.14774        2.23514       -0.41448
