34
2msa1a1eda_230.log	Energy: -988696.5062105
S          2.70617        0.21173        0.25768
O          2.08258        1.54151        0.23606
O          2.79527       -0.48472       -1.01910
O          2.00670       -0.69014        1.33736
H          1.00558       -0.77286        1.09758
C          4.31505        0.35861        0.98928
H          4.91257        0.97641        0.31844
H          4.20628        0.83448        1.96320
H          4.74394       -0.63895        1.08058
S         -1.07747       -1.52427       -0.44500
O         -2.36626       -2.05081        0.00188
O         -0.39182       -0.70636        0.62541
O         -1.13398       -0.73479       -1.70904
H         -0.56017        0.77982       -1.54261
C          0.01491       -2.89432       -0.77021
H          0.10742       -3.48002        0.14492
H         -0.43189       -3.49210       -1.56491
H          0.98100       -2.49272       -1.08183
N         -4.04390       -0.14438        1.93301
H         -5.02357       -0.21238        1.67720
H         -3.95772       -0.51086        2.87556
H         -3.52720       -0.77600        1.32006
H         -1.05408        3.64744       -0.85517
H         -1.86294        2.79223       -2.20173
H         -3.26615        2.81965       -0.18391
H         -2.84208        1.16950       -0.64255
H         -2.62394        1.73042        1.73299
H         -1.27640        1.13290        1.12560
H          0.38197        2.06694       -2.08671
H          0.33398        1.74203       -0.48935
C         -1.42307        2.68170       -1.20765
C         -2.43699        2.10653       -0.22915
N         -0.24738        1.77225       -1.34243
N         -1.86088        1.96816        1.10022
