40
2msa1dma1eda_470.log	Energy: -1038009.8229532
S          3.32544       -1.22008       -0.18435
O          4.44424       -2.02801        0.27420
O          3.54457       -0.28507       -1.28878
O          2.70957       -0.43067        1.03167
H          2.71436        0.63487        0.88443
C          1.98568       -2.30800       -0.61489
H          2.31285       -2.88812       -1.47887
H          1.80046       -2.96814        0.23326
H          1.09999       -1.71306       -0.84723
S         -1.59335       -0.30107        0.46216
O         -0.79568       -0.57490       -0.74125
O         -2.50486       -1.42639        0.84645
O         -2.38269        0.97757        0.34759
H         -4.03194        0.51635       -0.06421
C         -0.46966       -0.05883        1.81981
H          0.21749       -0.90384        1.85797
H          0.08012        0.86311        1.62332
H         -1.05117        0.02534        2.73783
N         -4.64600       -0.31121       -0.25132
C         -4.61520       -0.60427       -1.70113
C         -5.98841       -0.16632        0.33803
H         -4.06137       -1.02904        0.24845
H         -5.10171        0.20652       -2.24535
H         -3.57108       -0.68639       -2.00699
H         -5.13165       -1.54635       -1.88993
H         -6.51222        0.65968       -0.14568
H         -6.54779       -1.09193        0.19445
H         -5.88238        0.03711        1.40359
H          2.65520        3.67213       -0.66821
H          3.12836        2.05791       -1.26621
H          0.83061        2.63345       -1.98206
H          0.84804        1.21463       -0.94015
H          0.00085        3.89679       -0.13479
H         -0.81253        2.47741        0.00070
H          3.61488        2.44450        1.12332
H          1.98706        2.50530        1.38327
C          2.46067        2.59301       -0.58810
C          1.01143        2.29615       -0.95162
N          2.71559        2.11607        0.78388
N          0.11212        2.90221        0.03350
