42
2msa2eda_103.log	Energy: -1072768.1095265
S         -2.60820       -1.19313       -0.30512
O         -3.07420       -0.42789        0.86778
O         -2.30405       -2.61126       -0.07548
O         -1.42893       -0.48760       -0.95385
C         -3.90980       -1.11321       -1.52375
H         -4.78870       -1.60176       -1.10211
H         -4.11859       -0.06488       -1.73829
H         -3.57553       -1.63164       -2.42231
S          2.59310        1.07779       -0.49772
O          1.75831        2.04107       -1.22922
O          2.83340       -0.20396       -1.22558
O          2.06883        0.81328        0.88332
C          4.20625        1.80649       -0.28393
H          4.08254        2.75383        0.24102
H          4.82391        1.12091        0.29662
H          4.63558        1.96854       -1.27282
H         -0.59330        3.59182        1.03201
H         -0.46656        3.02899       -0.65420
H         -2.76200        3.99169       -0.01467
H         -2.82920        2.34604       -0.64603
H         -3.83152        3.12794        1.77533
H         -3.44933        1.56719        1.38902
H          0.41948        1.39653        0.93352
H         -1.12792        1.32789        1.63969
C         -0.96977        2.87278        0.30096
C         -2.49211        2.95455        0.20381
N         -0.60453        1.51846        0.77965
N         -3.09044        2.51633        1.46245
H         -0.89490        0.79711        0.08282
H          0.71178       -1.36657        1.29223
H         -0.07257       -2.92307        0.94937
H          1.93301       -3.33788        2.26169
H          2.24543       -3.94446        0.64999
H          3.58584       -2.02001        0.21497
H          3.18284       -1.34115        1.62498
H         -0.04350       -1.47616       -0.92452
H          1.64101       -1.35025       -0.92646
C          0.82085       -2.32052        0.77089
C          2.10059       -3.02167        1.22638
N          0.83954       -1.98726       -0.68236
N          3.32424       -2.23979        1.17098
H          0.88913       -2.82901       -1.25329
