38
2msa2dma_186.log	Energy: -1003275.5757720
S          0.01557        2.06384       -0.40326
O         -1.06337        3.01473       -0.63851
O          0.50243        1.25703       -1.51554
O         -0.49244        1.11215        0.75724
H         -0.09116        0.15347        0.71609
C          1.39082        2.89714        0.34719
H          1.79156        3.58682       -0.39718
H          1.02161        3.44051        1.21705
H          2.12385        2.12733        0.62386
S         -0.22916       -2.19373       -0.26266
O         -0.25574       -3.57179        0.20765
O          0.33497       -1.23361        0.75784
O         -1.54848       -1.67858       -0.75733
H         -2.52879       -0.76287       -0.02819
C          0.85913       -2.08586       -1.66744
H          1.84974       -2.41290       -1.34800
H          0.47180       -2.74650       -2.44340
H          0.87344       -1.04628       -1.99827
N          3.08750        0.09933        0.66344
C          4.02483       -0.33563        1.68493
C          3.66314        0.09940       -0.67134
H          2.26125       -0.49432        0.68448
H          4.83950        0.39280        1.77185
H          3.51640       -0.39067        2.65099
H          4.47690       -1.32103        1.47618
H          4.47652        0.83316       -0.71932
H          4.08226       -0.87806       -0.97090
H          2.89977        0.39348       -1.39654
N         -3.38564       -0.28645        0.41391
C         -3.72259        0.95582       -0.32443
C         -3.14860       -0.08831        1.86452
H         -4.13201       -0.96971        0.28703
H         -2.89778        1.66287       -0.22560
H         -3.85886        0.70839       -1.37716
H         -4.63943        1.38371        0.08566
H         -2.35657        0.65097        1.97498
H         -4.06763        0.25811        2.34057
H         -2.82733       -1.03615        2.29755
