42
2msa2eda_617.log	Energy: -1072728.7312804
S         -0.15180        2.28139        0.84645
O         -0.49824        3.64710        1.16737
O         -0.32635        1.85220       -0.55661
O         -0.94581        1.25824        1.76506
H         -1.71747        0.84854        1.27379
C          1.51257        1.93396        1.33615
H          2.15845        2.48958        0.65371
H          1.63633        2.28465        2.36135
H          1.69559        0.85551        1.26026
S         -2.85110       -0.63883       -0.83435
O         -3.98183       -0.53769       -1.72801
O         -2.89629        0.13412        0.41934
O         -1.51334       -0.25349       -1.60277
H         -1.09266        0.56014       -1.21152
C         -2.52842       -2.33668       -0.45040
H         -3.43467       -2.73193        0.01103
H         -2.31892       -2.85548       -1.38613
H         -1.68193       -2.35433        0.24718
H          1.13232       -2.94989        3.07981
H          0.29085       -3.85467        1.81630
H          2.54675       -3.38892        1.07846
H          1.41425       -2.45505        0.08490
H          2.95060       -1.35441        2.32382
H          3.15080       -1.00068        0.73013
H         -1.01998       -1.95817        2.71173
H          0.05920       -0.93967        2.03434
C          0.70803       -2.87156        2.06401
C          1.83638       -2.54772        1.09278
N         -0.34750       -1.86820        1.95708
N          2.45877       -1.27035        1.43808
H          3.74500       -0.73781       -3.02565
H          3.09680       -1.93336       -1.89416
H          1.29531       -0.49641       -2.71760
H          1.52575       -0.24800       -0.98403
H          2.47881        1.56681       -3.07281
H          1.40392        1.86468       -1.87535
H          5.12540       -0.77282       -1.07179
H          4.23159        0.60385       -0.98945
C          3.30008       -0.86426       -2.02468
C          1.98773       -0.09159       -1.96507
N          4.18556       -0.41208       -0.95008
N          2.24190        1.34210       -2.11132
