43
2msa1eda1tma_09.log	Energy: -1062691.6732914
S         -2.84105       -0.21746        0.18799
O         -2.81478        1.06613        0.90373
O         -2.88335       -1.42989        1.02091
O         -1.70250       -0.30793       -0.81639
C         -4.32132       -0.21737       -0.81152
H         -5.17516       -0.15495       -0.13616
H         -4.29284        0.64735       -1.47490
H         -4.35366       -1.14384       -1.38507
S          3.17696        0.04539        0.12807
O          2.31184        0.58139        1.20940
O          2.59573        0.39338       -1.21775
O          3.49113       -1.38562        0.25248
C          4.72726        0.92774        0.22297
H          4.53053        1.99395        0.10869
H          5.17123        0.72202        1.19729
H          5.37436        0.56696       -0.57686
H          0.84730        3.61951       -0.95408
H         -0.22221        2.87981       -2.16820
H         -1.36981        4.60756       -0.68011
H         -2.14230        3.01842       -0.66211
H         -1.15841        4.35033        1.55604
H         -1.66826        2.77974        1.47927
H          1.16553        1.23517       -0.94231
H          0.46906        1.74302        0.46540
C         -0.03330        2.98887       -1.09748
C         -1.24270        3.56799       -0.36107
N          0.28969        1.65778       -0.54305
N         -1.03827        3.46823        1.07856
H         -0.49091        0.98289       -0.66778
N         -0.18234       -2.49097       -0.16236
C          0.88484       -2.58091       -1.19387
H          0.41992       -2.84730       -2.14426
H          1.39507       -1.62133       -1.27887
H          1.61136       -3.33655       -0.89278
C          0.35248       -2.16289        1.18929
H          0.88411       -1.21132        1.15299
H         -0.49411       -2.09652        1.87295
H          1.05101       -2.94494        1.49100
C         -1.02124       -3.71270       -0.12446
H         -1.82912       -3.54887        0.58815
H         -1.43818       -3.88610       -1.11749
H         -0.39855       -4.55971        0.17166
H         -0.80474       -1.69178       -0.43381
