35
2msa1ma1dma_229.log	Energy: -978617.7915075
S         -1.93432       -1.26097        0.12016
O         -2.93345       -0.31193        0.65185
O         -0.83600       -1.55563        1.07442
O         -1.41193       -0.84396       -1.22197
C         -2.78032       -2.80848       -0.16369
H         -3.58082       -2.63418       -0.88292
H         -2.06095       -3.52788       -0.55601
H         -3.18545       -3.15161        0.78860
S          2.66487       -0.39406       -0.32335
O          3.86774       -0.34266       -1.14036
O          1.78074        0.75451       -0.25695
O          3.14550       -0.68294        1.20416
H          4.10053       -0.83813        1.18905
C          1.72062       -1.84479       -0.68190
H          1.26524       -1.69112       -1.66148
H          2.40048       -2.69679       -0.68534
H          0.93106       -1.92766        0.07286
N         -0.51585        1.45423        1.75532
H         -1.39494        1.47539        2.26529
C          0.54171        2.16260        2.47999
H          0.71891        1.76402        3.48674
H          1.46929        2.08245        1.90954
H          0.28349        3.22186        2.57049
H         -0.29225        0.46069        1.66869
N         -1.13054        1.88596       -0.90011
C         -0.19143        2.67747       -1.71429
C         -2.51415        2.40235       -0.90140
H         -1.14929        0.88499       -1.20206
H         -0.15411        3.69792       -1.32673
H          0.79542        2.22282       -1.64688
H         -0.53221        2.69549       -2.75184
H         -2.52129        3.40584       -0.46988
H         -2.89041        2.44001       -1.92585
H         -3.12346        1.72220       -0.30447
H         -0.80263        1.81888        0.12523
