37
2msa1ma1eda_09.log	Energy: -1013376.7723635
S         -2.29799       -0.90064       -0.40788
O         -1.72070       -0.52192        0.90942
O         -1.74750       -2.19241       -0.89723
O         -2.18535        0.20223       -1.39903
H         -0.80826        1.20434       -0.98942
C         -4.04400       -1.16939       -0.16748
H         -4.16856       -1.96964        0.56219
H         -4.48465       -0.24184        0.19905
H         -4.48000       -1.44949       -1.12644
S          2.79150        0.16754       -0.24793
O          2.49789        1.18438       -1.28729
O          2.96279       -1.20983       -0.77321
O          1.78664        0.20932        0.86150
H          0.66471       -1.43166        0.85681
C          4.35627        0.62906        0.47200
H          5.10493        0.62476       -0.32030
H          4.25353        1.62575        0.90122
H          4.60774       -0.09928        1.24294
N          0.69024       -2.33704        0.36300
H         -0.17557       -2.37862       -0.22086
C          0.76291       -3.46898        1.30446
H          0.80238       -4.40275        0.74403
H          1.65733       -3.36980        1.91942
H         -0.12562       -3.45773        1.93540
H          1.53239       -2.24622       -0.23449
H         -2.70652        2.58703       -0.04675
H         -2.25400        4.10001        0.74966
H         -0.85966        3.62395       -1.27655
H          0.10822        3.75781        0.21651
H          0.78484        1.80463       -1.06990
H          0.15914        1.36923        0.35952
H         -2.21381        2.72725        2.55310
H         -1.76383        1.38703        1.70938
C         -1.92043        3.07838        0.54475
C         -0.65465        3.17363       -0.30242
N         -1.62955        2.39375        1.79793
N         -0.10092        1.81963       -0.53131
