34
2msa1a1eda_93.log	Energy: -988701.8029238
S         -1.16788        2.02212       -0.28678
O         -2.38182        2.47474        0.38059
O         -1.24110        0.80014       -1.08433
O         -0.07096        1.88122        0.82735
C         -0.53735        3.31364       -1.33362
H         -1.25761        3.46013       -2.13902
H         -0.42944        4.21914       -0.73711
H          0.42396        2.98016       -1.72773
S          2.46578       -0.33013       -0.01327
O          2.27113       -1.08236       -1.25444
O          1.79065       -0.94368        1.16866
O          2.09883        1.12739       -0.12607
H          0.84379        1.53360        0.44835
C          4.20885       -0.31876        0.35958
H          4.53638       -1.35346        0.46227
H          4.72510        0.16717       -0.46857
H          4.36088        0.23025        1.28859
N         -2.22448        0.05214        2.36559
H         -2.83411       -0.25751        3.11526
H         -2.71491        0.77393        1.83747
H         -1.42740        0.52186        2.78876
H         -0.09396       -3.44287       -0.07688
H         -1.02275       -3.41446        1.43063
H         -2.36736       -4.43830       -0.39083
H         -3.10599       -2.92530        0.14618
H         -1.54101       -3.22899       -2.31673
H         -3.05388       -2.60905       -2.12819
H          0.20373       -1.32180        0.74299
H         -0.97148       -1.13089       -0.44090
C         -0.97424       -3.01844        0.41370
C         -2.23871       -3.34614       -0.37396
N         -0.78239       -1.55703        0.47860
N         -2.15179       -2.72304       -1.68575
H         -1.41474       -1.08125        1.16880
