32
2msa1a1dma_96.log	Energy: -953955.9990199
S          2.35626        0.71398        0.00780
O          2.78335       -0.70059        0.04687
O          1.85558        1.25611        1.26019
O          1.36971        0.93920       -1.17582
H          0.57298        0.26040       -1.22951
C          3.72961        1.68386       -0.55972
H          4.49777        1.62792        0.21181
H          4.08675        1.26451       -1.49954
H          3.38745        2.71037       -0.68944
S         -1.14275       -1.47314       -0.37452
O         -0.55923       -0.61142       -1.45160
O         -0.98098       -0.84766        0.96927
O         -0.61008       -2.85898       -0.39940
H          0.72932       -2.93099        0.87515
C         -2.88040       -1.53846       -0.72745
H         -3.00387       -1.92752       -1.73821
H         -3.34237       -2.20305        0.00314
H         -3.26371       -0.51783       -0.62911
N          1.20233       -2.33481        1.58361
H          1.55231       -2.85602        2.38086
H          0.45768       -1.65577        1.83325
H          1.95037       -1.79137        1.09998
N         -2.73789        1.65686        0.31206
C         -3.42355        2.46327        1.30626
C         -2.14203        2.45512       -0.74727
H         -2.01652        1.09933        0.76270
H         -4.28869        2.95584        0.84756
H         -3.79145        1.82130        2.11168
H         -2.78716        3.24930        1.75111
H         -2.93368        2.96322       -1.31030
H         -1.44312        3.22535       -0.37599
H         -1.59991        1.80110       -1.43430
