29
2msa1a1ma_65.log	Energy: -929300.3524543
S         -1.76398        0.50727       -0.05043
O         -1.12514        1.84329       -0.06367
O         -2.62020        0.26260       -1.25280
O         -2.54751        0.25602        1.20314
H         -4.14264       -0.01945        0.81222
C         -0.45582       -0.69402       -0.08779
H          0.13666       -0.54333       -0.99099
H          0.16875       -0.56507        0.79740
H         -0.89473       -1.69116       -0.09225
S          3.11758       -0.55805       -0.00969
O          2.50797       -1.88077       -0.16832
O          2.72202        0.14507        1.25526
O          2.91753        0.35008       -1.18631
H          2.03024        1.79185       -0.70598
C          4.88280       -0.80879        0.11077
H          5.07364       -1.44803        0.97322
H          5.21705       -1.29396       -0.80663
H          5.36854        0.15939        0.23387
N          1.56651        2.27413        0.09827
H          1.93128        1.69193        0.88493
H          0.52878        2.17200        0.03288
H          1.83992        3.24799        0.17634
N         -4.85203       -0.24396        0.05862
H         -5.64466        0.39133        0.10329
C         -5.24246       -1.66928        0.08407
H         -5.87952       -1.89520       -0.77071
H         -4.33113       -2.26408        0.02907
H         -5.76669       -1.88986        1.01351
H         -4.23903       -0.02093       -0.76720
