43
2msa1eda1tma_132.log	Energy: -1062680.8471027
S          1.00011       -2.30123       -0.37966
O         -0.27007       -1.83319       -1.00502
O          0.85013       -2.69864        1.02723
O          2.09947       -1.29669       -0.58213
C          1.50788       -3.73212       -1.31028
H          1.64317       -3.43876       -2.35105
H          2.44202       -4.09671       -0.88286
H          0.72401       -4.48417       -1.21805
S          2.53552        1.95941        0.13009
O          3.04581        3.02736        0.96169
O          1.20647        2.13148       -0.47768
O          2.55028        0.63596        0.98268
H          2.33959       -0.18986        0.40648
C          3.67241        1.60741       -1.19263
H          3.67507        2.47112       -1.85812
H          4.65802        1.44979       -0.75498
H          3.32145        0.71256       -1.70927
H          0.09548       -0.15442        1.98024
H         -0.89022        1.29744        2.23954
H         -1.92134       -0.63657        3.35259
H         -2.97238       -0.04107        2.08207
H         -2.26651       -1.88602        0.71119
H         -1.22762       -2.39373        1.83787
H         -0.22306        1.18852       -0.01694
H         -0.74752       -0.37588       -0.21290
C         -0.86839        0.31273        1.76438
C         -2.02239       -0.56024        2.26496
N         -0.94534        0.51616        0.29396
N         -2.10950       -1.90009        1.71404
H         -1.90089        0.84360       -0.00648
N         -3.53469        1.12143       -0.70269
C         -3.27009        1.73167       -2.00343
H         -2.78750        2.70298       -1.86439
H         -2.59698        1.09131       -2.58053
H         -4.19549        1.87898       -2.58437
C         -4.11179       -0.21220       -0.85729
H         -3.42321       -0.84836       -1.42173
H         -4.27371       -0.66380        0.12592
H         -5.07705       -0.18466       -1.38890
C         -4.38689        1.97526        0.11775
H         -4.53645        1.51467        1.09843
H         -3.90763        2.94763        0.26060
H         -5.37556        2.13680       -0.34341
