32
2msa2ma_04.log	Energy: -953981.2096019
S         -2.65083       -0.00037       -0.15620
O         -2.59428       -1.25084       -0.93099
O         -2.59410        1.24951       -0.93197
O         -1.58240        0.00001        0.92679
C         -4.20110        0.00009        0.72840
H         -5.00222       -0.00047       -0.01126
H         -4.24802       -0.89693        1.34591
H         -4.24817        0.89794        1.34470
S          2.74828        0.00023        0.06309
O          2.66439       -1.24324        0.87197
O          2.66260        1.24558        0.86911
O          1.75335       -0.00162       -1.05164
C          4.36639        0.00070       -0.68390
H          5.10624        0.00317        0.11664
H          4.46140       -0.89792       -1.29342
H          4.45922        0.89705       -1.29708
N          0.12558        2.02585        0.11114
H          0.30734        1.62826       -0.81551
H         -0.52800        1.34586        0.56060
C         -0.45314        3.38253        0.04579
H         -0.59309        3.75564        1.06024
H          0.22670        4.04068       -0.49526
H         -1.41375        3.31465       -0.46366
H          1.04690        1.96721        0.59016
N          0.12681       -2.02585        0.11409
H          1.04670       -1.96801        0.59555
H         -0.52822       -1.34691        0.56303
C         -0.45108       -3.38264        0.04392
H         -1.41087       -3.31378       -0.46695
H          0.23000       -4.03884       -0.49792
H         -0.59255       -3.75882        1.05702
H          0.31167       -1.62590       -0.81107
