38
2msa1ma1tma_81.log	Energy: -1003280.6132234
S         -0.46485       -1.87289       -0.13726
O         -1.43865       -2.93632       -0.26574
O         -0.53311       -0.77478       -1.12079
O          0.96639       -2.50678       -0.17334
H          1.70266       -1.81611       -0.34641
C         -0.58268       -1.14243        1.47873
H         -1.50170       -0.55129        1.49004
H         -0.62092       -1.95071        2.20905
H          0.29866       -0.51371        1.63240
S          2.97155        0.48901        0.07807
O          2.84455       -0.83145       -0.60403
O          2.12480        0.58695        1.28653
O          2.75000        1.63152       -0.85679
H          1.13021        1.91986       -1.00952
C          4.67365        0.60332        0.58603
H          4.87384       -0.21541        1.27723
H          5.29759        0.52041       -0.30375
H          4.81798        1.56752        1.07328
N          0.07664        1.86940       -0.93788
H         -0.35205        2.35138       -1.72422
C         -0.39426        2.39117        0.37121
H         -1.40826        2.02684        0.55111
H          0.28693        2.00624        1.13099
H         -0.35785        3.48057        0.36200
H         -0.15776        0.85525       -1.01998
N         -3.48031        0.80149        0.19470
C         -4.05131       -0.51639        0.44579
H         -3.44261       -1.29010       -0.02917
H         -4.07671       -0.70983        1.52271
H         -5.08290       -0.60325        0.05772
C         -4.26743        1.83865        0.84231
H         -4.31902        1.64936        1.91837
H         -3.79764        2.81638        0.68978
H         -5.30050        1.89208        0.45089
C         -3.37257        1.04421       -1.23585
H         -2.93792        2.03661       -1.40896
H         -2.72341        0.28891       -1.68679
H         -4.35436        1.02060       -1.74351
