37
2msa1ma1eda_407.log	Energy: -1013353.1021729
S          1.67664        0.14809       -0.60024
O          2.82615        0.76829       -1.23011
O          0.62226       -0.14144       -1.73243
O          1.02058        0.90498        0.48309
H         -0.52636        1.19595        1.11656
C          2.10977       -1.44728        0.03380
H          2.50184       -2.03221       -0.79888
H          2.88416       -1.26562        0.78643
H          1.20689       -1.90150        0.44941
S         -2.09752       -1.52919        0.24662
O         -2.79793       -0.74380        1.29594
O         -0.95053       -2.31301        0.71620
O         -1.73372       -0.61862       -0.90333
H         -0.30011       -0.38636       -1.36796
C         -3.29996       -2.66534       -0.41406
H         -3.60275       -3.33511        0.39109
H         -4.15163       -2.09250       -0.78067
H         -2.82796       -3.22370       -1.22266
N          4.75957        0.12024        1.18342
H          4.33449        0.94572        0.77236
C          5.69128       -0.48330        0.23271
H          6.53878        0.15829       -0.04922
H          6.09063       -1.41154        0.65252
H          5.14699       -0.73264       -0.68212
H          5.23843        0.40774        2.02947
H         -2.57267        3.32790        1.39122
H         -0.80846        3.56031        1.19637
H         -1.93189        3.87626       -0.93877
H         -0.91364        2.43884       -1.02017
H         -3.45287        2.43857       -1.77028
H         -2.80549        1.10856       -1.05934
H         -1.30049        1.62033        2.52318
H         -2.15954        0.87426        1.32365
C         -1.66373        2.93231        0.93384
C         -1.83384        2.84777       -0.57827
N         -1.41059        1.58352        1.51139
N         -3.03040        2.09192       -0.91870
