40
2msa1dma1eda_57.log	Energy: -1038034.9965121
S          2.92878        0.40113       -0.29585
O          3.47176       -0.12279        0.96487
O          2.58847        1.85130       -0.27931
O          1.75082       -0.39365       -0.78421
C          4.18816        0.20830       -1.54481
H          5.05908        0.78663       -1.23517
H          4.43600       -0.85070       -1.61860
H          3.79373        0.57963       -2.49063
S         -2.34608       -0.84157       -0.70127
O         -1.82560       -2.10808       -1.23120
O         -2.05791        0.36038       -1.52457
O         -1.91676       -0.62168        0.72818
C         -4.12542       -0.98015       -0.64923
H         -4.47955       -1.12214       -1.67059
H         -4.38352       -1.84053       -0.03140
H         -4.53635       -0.06308       -0.22580
N          0.49542       -1.99903        0.95307
C          1.07307       -1.79265        2.29747
C          0.54723       -3.39188        0.46497
H         -0.48311       -1.64548        0.93403
H          2.14477       -1.98782        2.26082
H          0.92339       -0.75198        2.58522
H          0.57505       -2.45271        3.01005
H          1.59124       -3.69931        0.38613
H          0.01745       -4.04161        1.16404
H          0.05842       -3.42229       -0.50834
H          1.01267       -1.38517        0.26632
H         -0.19958        3.80248        0.61412
H         -0.94006        3.63468       -0.99935
H         -2.62974        3.91652        0.89203
H         -2.85749        2.44469       -0.05992
H         -2.48499        2.53110        2.66877
H         -2.27906        1.17812        1.73011
H          0.86553        1.94629       -0.37951
H         -0.23875        1.38138        0.72717
C         -0.83660        3.17585       -0.01402
C         -2.19267        2.94219        0.65571
N         -0.15560        1.87119       -0.17091
N         -2.00382        2.14806        1.86744
H         -0.64919        1.27299       -0.86340
