30
2msa1eda_05.log	Energy: -953206.9632685
S         -1.41314       -1.66541       -0.06087
O         -0.06637       -2.00945       -0.65611
O         -2.35595       -1.12478       -1.04435
O         -1.25770       -0.80863        1.14812
C         -2.02221       -3.23381        0.51507
H         -2.10313       -3.89988       -0.34391
H         -1.31488       -3.62439        1.24619
H         -2.99934       -3.06529        0.96794
S          2.54553        0.17204        0.13248
O          2.69928       -0.88844        1.11200
O          2.24958        1.52810        0.63589
O          1.47761       -0.17560       -0.94202
H          0.81432       -1.04527       -0.75965
C          4.03094        0.29659       -0.83750
H          4.23151       -0.68145       -1.27422
H          3.88024        1.04878       -1.61134
H          4.83384        0.59154       -0.16128
H         -0.48680        3.00786       -0.91623
H         -0.62425        1.27355       -1.27442
H         -2.81783        2.45578       -1.63024
H         -2.91136        1.21254       -0.38758
H         -2.88187        4.10716        0.06289
H         -3.82553        2.96411        0.75275
H          0.50880        1.81868        0.85564
H         -1.00457        2.40708        1.39830
C         -0.96771        2.07261       -0.61640
C         -2.48648        2.19335       -0.61814
N         -0.52355        1.76035        0.76562
N         -2.89166        3.15471        0.41111
H         -0.80962        0.77580        1.00574
