28
2msa1dma_31.log	Energy: -918461.3237595
S         -2.13174       -0.81143        0.11991
O         -2.80457        0.33843        0.75899
O         -1.46122       -1.74717        1.03715
O         -1.18676       -0.33338       -0.96027
C         -3.39073       -1.73460       -0.74699
H         -4.10787       -2.09263       -0.00777
H         -3.87581       -1.07124       -1.46306
H         -2.91502       -2.57340       -1.25548
S          2.49903       -0.28722        0.00536
O          2.05092        0.73126       -0.94588
O          2.59381        0.09154        1.40184
O          3.95112       -0.79211       -0.51886
H          4.41518       -0.03786       -0.91056
C          1.60721       -1.80314       -0.16251
H          1.51385       -2.02818       -1.22386
H          2.17106       -2.56875        0.37124
H          0.61906       -1.66068        0.28921
N         -0.37804        2.06113       -0.24696
C         -1.38771        2.98009       -0.80967
C         -0.24661        2.15176        1.22788
H         -0.67222        1.06395       -0.52087
H         -1.13115        4.01363       -0.56895
H         -1.42632        2.84235       -1.89045
H         -2.35167        2.71221       -0.37442
H          0.00260        3.17819        1.50457
H         -1.19713        1.84431        1.66523
H          0.54541        1.47667        1.55327
H          0.54036        2.17870       -0.67973
