38
2msa2dma_180.log	Energy: -1003277.8149830
S         -2.68112        1.36566        0.10678
O         -3.88804        2.19085        0.11290
O         -2.47794        0.52613       -1.09958
O         -2.54630        0.50696        1.34841
H         -2.40832       -0.92226        1.00875
C         -1.27949        2.47367        0.19227
H         -1.30220        3.10782       -0.69561
H         -1.38551        3.08018        1.09260
H         -0.36867        1.87248        0.23027
S          1.40024       -0.66167       -0.96639
O          0.80105       -1.98584       -0.74984
O          2.83383       -0.70990       -1.40219
O          1.26643        0.24094        0.23282
H          2.78764        0.69151        0.76057
C          0.49772        0.12728       -2.27993
H          0.58222       -0.50528       -3.16440
H         -0.54653        0.23476       -1.96680
H          0.94842        1.10294       -2.46554
N         -2.39910       -2.01799        0.94241
C         -1.24695       -2.52309        1.72271
C         -2.41959       -2.47417       -0.46870
H         -3.26819       -2.29337        1.39778
H         -0.33487       -2.22248        1.20514
H         -1.28315       -2.07880        2.71804
H         -1.29214       -3.61256        1.78943
H         -1.45253       -2.23875       -0.91203
H         -2.59067       -3.55319       -0.49758
H         -3.20247       -1.93108       -0.99633
N          3.83624        0.62790        0.65233
C          4.39695       -0.23632        1.70800
C          4.45433        1.95965        0.53037
H          3.82803        0.11372       -0.26345
H          4.26247        0.24166        2.67961
H          3.86498       -1.18773        1.68680
H          5.45874       -0.40314        1.51967
H          4.32629        2.50652        1.46585
H          5.51738        1.85065        0.30940
H          3.96303        2.49822       -0.28013
