41
2msa1dma1tma_65.log	Energy: -1027940.6440158
S         -0.67119       -1.76622        0.64038
O          0.17640       -2.90148        0.98621
O         -0.07096       -0.88085       -0.43659
O         -1.07018       -0.89526        1.78990
H         -0.09113        0.41137        1.82481
C         -2.18903       -2.38078       -0.05693
H         -1.92746       -2.99783       -0.91738
H         -2.67539       -2.98575        0.70933
H         -2.82396       -1.54052       -0.35490
S          2.98715        0.28409       -0.85149
O          2.95605        0.38236        0.62094
O          2.53318        1.46457       -1.57295
O          2.24477       -1.00459       -1.31783
H          1.26378       -1.03771       -0.94503
C          4.64404       -0.12344       -1.33567
H          4.94291       -1.03042       -0.81142
H          4.65574       -0.26890       -2.41562
H          5.27474        0.71952       -1.05210
N          0.57224        1.23162        1.76748
C          0.80234        1.78562        3.11521
C          0.05090        2.20410        0.78173
H          1.46352        0.84940        1.39272
H         -0.13738        2.17507        3.50977
H          1.16796        0.98928        3.76346
H          1.54232        2.58558        3.05885
H         -0.88858        2.61905        1.15036
H          0.78692        2.99466        0.62967
H         -0.11678        1.67450       -0.15545
N         -3.75822        0.55895       -0.96186
C         -5.03451        0.96768       -1.51906
H         -5.18651        0.48698       -2.48985
H         -5.84632        0.65842       -0.85395
H         -5.10386        2.06381       -1.66279
C         -3.55095        1.12540        0.35869
H         -4.38493        0.85564        1.01347
H         -2.63756        0.71569        0.80019
H         -3.47597        2.23187        0.33313
C         -2.65819        0.88731       -1.85389
H         -1.72177        0.48904       -1.45309
H         -2.82613        0.42785       -2.83234
H         -2.54913        1.98013       -2.00130
