35
2msa1ma1dma_327.log	Energy: -978611.2357466
S         -3.07258       -0.06057        0.27997
O         -4.27970       -0.30426        1.04428
O         -2.57750       -1.08108       -0.63875
O         -1.91619        0.28391        1.32352
H         -1.02721       -0.04482        1.00450
C         -3.24745        1.46731       -0.60993
H         -4.02645        1.30936       -1.35746
H         -3.55329        2.23343        0.10308
H         -2.28734        1.71278       -1.07959
S          1.10666       -1.34280       -0.33653
O          1.14232       -0.72368       -1.66970
O          0.51723       -0.44109        0.70144
O          2.47161       -1.79030        0.12332
H          3.30628       -0.60309        0.47970
C          0.11502       -2.81214       -0.40124
H         -0.90069       -2.50660       -0.66032
H          0.54253       -3.46954       -1.15841
H          0.14324       -3.27972        0.58297
N         -0.10620        2.14881       -1.44740
H          0.25266        1.19682       -1.49188
C          0.24731        2.82469       -0.20867
H          1.32937        2.97215       -0.04372
H         -0.22365        3.81228       -0.17990
H         -0.14396        2.25068        0.63539
H          0.22942        2.64931       -2.26170
N          3.81339        0.34622        0.67342
C          3.14565        1.00149        1.82574
C          3.75415        1.13462       -0.58244
H          4.78351        0.13840        0.90400
H          2.08081        1.06817        1.59830
H          3.27869        0.37613        2.70846
H          3.57829        1.99015        1.98933
H          2.70646        1.25708       -0.85945
H          4.22847        2.10614       -0.43268
H          4.25700        0.57589       -1.37143
