41
2msa1dma1tma_70.log	Energy: -1027940.3592708
S         -1.18984       -1.90925       -0.31427
O         -1.41944       -1.42846        1.04277
O          0.13006       -2.48407       -0.59153
O         -1.55456       -0.82400       -1.37818
H         -0.80343       -0.12479       -1.59238
C         -2.43506       -3.11658       -0.70403
H         -2.31566       -3.93636        0.00488
H         -3.41177       -2.64743       -0.58645
H         -2.28181       -3.45831       -1.72703
S          0.85729        1.64288       -0.90477
O          0.16542        0.87257       -1.98876
O          2.28390        1.86760       -1.18059
O          0.62790        0.97777        0.42116
H          1.71273       -0.18282        0.66594
C          0.03200        3.21224       -0.80384
H          0.10566        3.69073       -1.78075
H         -1.00637        3.00839       -0.52065
H          0.53802        3.80818       -0.04352
N         -2.38690        1.66978        0.83271
C         -3.71111        1.11528        0.61596
C         -2.24872        2.31189        2.12765
H         -1.70070        0.92184        0.77652
H         -4.45031        1.92416        0.58088
H         -3.73081        0.59529       -0.34540
H         -4.02157        0.40547        1.40326
H         -2.88466        3.20435        2.17101
H         -2.52712        1.65815        2.97375
H         -1.20977        2.62544        2.26615
N          2.58484       -0.75556        0.86043
C          3.06844       -1.28281       -0.44342
H          2.28940       -1.91956       -0.86104
H          3.24894       -0.43430       -1.10505
H          3.98931       -1.84664       -0.27477
C          3.54785        0.20961        1.44341
H          3.68247        1.02154        0.72706
H          3.13026        0.60568        2.36963
H          4.49432       -0.29897        1.64114
C          2.21970       -1.83866        1.80318
H          1.77790       -1.39232        2.69458
H          1.48686       -2.48081        1.31544
H          3.11857       -2.40156        2.06717
