25
2msa1ma_46.log	Energy: -893793.9803107
S          2.06401       -0.76837        0.10495
O          3.06849       -1.72668        0.49920
O          1.04021       -0.36805        1.08975
O          1.31957       -1.35066       -1.17237
H          0.37573       -1.04978       -1.21982
C          2.81957        0.71259       -0.50071
H          3.38393        1.13855        0.33041
H          3.48844        0.43104       -1.31431
H          2.02065        1.39478       -0.82615
S         -2.10234       -0.27765       -0.05060
O         -1.28567       -0.71767       -1.19017
O         -2.33261        1.15007        0.08297
O         -1.50549       -0.89008        1.27994
H         -0.51365       -0.74199        1.30384
C         -3.65201       -1.13491       -0.09220
H         -4.18274       -0.77657       -0.97466
H         -3.45507       -2.20398       -0.16099
H         -4.20072       -0.88724        0.81626
N          0.28822        2.71805       -0.71895
H          0.28234        3.52944       -1.32786
C          0.48442        3.12099        0.67465
H         -0.28562        3.80113        1.06300
H          0.49613        2.22548        1.30194
H          1.45789        3.61095        0.77964
H         -0.61946        2.27069       -0.81331
