29
2msa1a1ma_128.log	Energy: -929291.5355635
S         -2.80733       -0.63249        0.04394
O         -2.27971       -1.38325       -1.08127
O         -4.24731       -0.64804        0.30044
O         -2.34895        0.88322       -0.10822
H         -3.14819        1.51533        0.03237
C         -1.94471       -1.13355        1.51253
H         -2.16482       -2.19116        1.66400
H         -0.87502       -0.97644        1.35485
H         -2.31386       -0.53915        2.34824
S          1.83468       -0.15821       -0.36856
O          1.18166       -0.50772        0.88803
O          2.83005       -1.09265       -0.89727
O          2.50692        1.26571       -0.24142
H          3.54913        1.14426       -0.13768
C          0.58978        0.14918       -1.59217
H          0.03392       -0.77921       -1.73285
H         -0.08497        0.91765       -1.21391
H          1.08266        0.46085       -2.51243
N         -4.53552        2.31818        0.22493
H         -5.15750        1.52038        0.34525
H         -4.83752        2.83810       -0.59247
H         -4.62143        2.92256        1.03522
N          5.01958        0.73076        0.02651
H          5.09981        0.00971       -0.68730
C          5.20003        0.13810        1.36099
H          6.18483       -0.32153        1.49550
H          5.06080        0.91212        2.11849
H          4.43257       -0.62490        1.50684
H          5.72155        1.43957       -0.16067
