38
2msa2dma_85.log	Energy: -1003283.8450353
S          2.30423       -0.00184       -0.54477
O          3.47987       -0.79858       -0.83713
O          1.61120       -0.25483        0.73386
O          1.29178       -0.22861       -1.72616
H          0.34047        0.11831       -1.55761
C          2.68191        1.72639       -0.60547
H          3.44919        1.90879        0.14860
H          3.06002        1.94920       -1.60325
H          1.75517        2.26705       -0.35921
S         -2.06218       -0.22253       -0.59240
O         -1.10284        0.56123       -1.43087
O         -1.95331        0.09892        0.84430
O         -1.96233       -1.68836       -0.85253
H         -0.79336       -2.26871        0.19419
C         -3.67550        0.28238       -1.14830
H         -3.77152        1.35367       -0.97021
H         -3.75855        0.05710       -2.21131
H         -4.41786       -0.27185       -0.57388
N         -0.03618        2.63581        0.81046
C         -1.04439        3.56648        0.33381
C          0.47047        2.96800        2.13032
H         -0.44374        1.70436        0.83666
H         -0.59439        4.55431        0.17909
H         -1.42989        3.21185       -0.62585
H         -1.89126        3.68712        1.03239
H          0.99864        3.92848        2.09351
H         -0.31918        3.04958        2.89778
H          1.18189        2.20001        2.44800
N         -0.04992       -2.44123        0.91779
C          0.83227       -3.54704        0.49248
C         -0.70263       -2.62224        2.23116
H          0.51498       -1.56672        0.93159
H          0.24716       -4.46336        0.40259
H          1.27202       -3.29014       -0.47169
H          1.62599       -3.67871        1.22927
H         -1.30747       -3.53021        2.20844
H          0.06131       -2.70137        3.00624
H         -1.33737       -1.75289        2.40589
