42
2msa2eda_491.log	Energy: -1072745.9920202
S          0.78706        2.06669        0.34030
O          2.03796        1.76294        1.06786
O         -0.40294        2.20342        1.20734
O          0.53733        1.10566       -0.78465
C          1.03302        3.65336       -0.44562
H          1.21870        4.38987        0.33662
H          1.88989        3.57957       -1.11577
H          0.13021        3.90657       -1.00244
S         -3.14166       -0.35868       -0.62429
O         -2.05156       -1.17517       -1.14489
O         -3.68890       -0.64565        0.68794
O         -4.35355       -0.48662       -1.70299
H         -4.10215       -1.16100       -2.35000
C         -2.77442        1.36568       -0.74155
H         -2.04011        1.60042        0.03897
H         -2.35139        1.55616       -1.72725
H         -3.70693        1.90783       -0.58277
H          1.31702       -2.25186        1.97925
H          1.55591       -0.50017        1.74800
H         -0.26956       -0.93182        3.40783
H         -0.89339       -0.13497        1.97371
H         -1.35925       -2.89525        2.76234
H         -2.34167       -1.85707        1.93845
H          1.37812       -1.98463       -0.29986
H         -0.29726       -2.01854        0.07235
C          0.85402       -1.32704        1.62217
C         -0.46878       -1.07580        2.33903
N          0.57974       -1.49205        0.17180
N         -1.38570       -2.17660        2.04982
H          0.45580       -0.55482       -0.27499
H          4.77767       -2.07481       -1.82959
H          3.24332       -1.85385       -2.68740
H          4.24234        0.30321       -1.89691
H          2.62315        0.02891       -1.26614
H          5.08726       -0.07429        0.25235
H          3.59997        0.52107        0.64341
H          3.11973       -3.62149       -1.01214
H          3.47262       -2.50815        0.15036
C          3.72542       -1.77507       -1.70746
C          3.65615       -0.32898       -1.21386
N          3.02199       -2.64503       -0.75440
N          4.09031       -0.24185        0.17911
