42
2msa2eda_337.log	Energy: -1072753.1461302
S          1.90045       -1.51172        0.73179
O          1.37791       -1.30202        2.08933
O          2.96807       -0.57725        0.32708
O          0.78853       -1.49925       -0.30334
C          2.57376       -3.15988        0.65494
H          3.39237       -3.21683        1.37282
H          1.78393       -3.86435        0.91606
H          2.93245       -3.33611       -0.35904
S         -2.51809       -1.00400       -0.86721
O         -2.45500       -1.82882       -2.05886
O         -2.23176        0.43373       -1.03978
O         -1.63223       -1.57384        0.29106
H         -0.60889       -1.58494        0.06819
C         -4.11710       -1.14878       -0.10987
H         -4.30513       -2.20433        0.08429
H         -4.12157       -0.57075        0.81379
H         -4.84047       -0.75152       -0.82253
H          0.82482        2.14242       -2.88197
H          0.64718        3.25774       -1.50285
H          2.99490        3.14914       -2.26693
H          2.85471        2.51898       -0.62318
H          4.04035        1.18826       -2.63022
H          3.29590        0.39648       -1.39288
H         -0.50836        1.07637       -1.20666
H          0.94831        0.31877       -1.20105
C          1.08752        2.31322       -1.83612
C          2.60497        2.31533       -1.67537
N          0.49555        1.22665       -1.02548
N          3.15741        1.05750       -2.15537
H          0.59137        1.42546        0.02151
H         -1.19272        3.48013        2.66073
H         -2.57274        2.40299        2.60656
H         -0.64708        1.17413        3.39841
H         -1.12939        0.52695        1.83056
H          1.06644        2.44700        2.16069
H          1.22323        0.82487        2.00435
H         -1.02888        3.37933        0.31349
H         -2.21517        2.24998        0.19612
C         -1.61190        2.61789        2.12531
C         -0.70123        1.40547        2.32551
N         -1.87259        3.02883        0.75260
N          0.63627        1.62153        1.75056
