29
2msa1a1ma_106.log	Energy: -929295.6514169
S          1.28686       -0.74703        0.41666
O          1.35010        0.49926        1.20781
O          1.16522       -0.57152       -1.02712
O          0.14090       -1.65877        0.96599
H         -0.78371       -1.16993        0.90878
C          2.71099       -1.72169        0.79991
H          3.56174       -1.18434        0.36408
H          2.78411       -1.81373        1.88294
H          2.58336       -2.69541        0.32665
S         -2.78581        0.06204       -0.32495
O         -4.21677       -0.15034       -0.18045
O         -1.98707       -0.38214        0.88471
O         -2.38559        1.47312       -0.64501
H         -1.44845        2.00019        0.44655
C         -2.20212       -0.92860       -1.68672
H         -2.44191       -1.97067       -1.47195
H         -2.72923       -0.59445       -2.58080
H         -1.12522       -0.78693       -1.79387
N         -0.82668        2.21474        1.30674
H         -0.59594        3.20172        1.37460
H          0.03475        1.63191        1.24732
H         -1.35101        1.91340        2.12611
N          4.20368        0.34969       -1.24233
H          4.94684        0.24241       -1.92372
C          4.21982        1.69237       -0.66226
H          4.08686        2.50500       -1.39129
H          3.42164        1.76564        0.08173
H          5.17022        1.85143       -0.14486
H          3.32368        0.18333       -1.72331
