42
2msa2eda_394.log	Energy: -1072752.2866367
S         -2.57401        1.04393       -0.17719
O         -3.18067        1.18032        1.14382
O         -1.40300        0.08604       -0.19867
O         -2.14587        2.32139       -0.81333
H         -0.47996        2.44403       -0.83170
C         -3.78861        0.32949       -1.27237
H         -4.11057       -0.62250       -0.84857
H         -4.62781        1.02285       -1.33323
H         -3.33155        0.18509       -2.25120
S          0.09307       -2.83095        0.12594
O          0.97955       -2.03522        0.97628
O          0.42236       -2.89437       -1.29365
O         -1.39760       -2.37091        0.33528
H         -1.47804       -1.35939        0.14977
C         -0.02487       -4.47882        0.77762
H          0.96208       -4.93049        0.67373
H         -0.31566       -4.41556        1.82559
H         -0.76279       -5.02748        0.19305
H          2.05438        3.16668        0.57043
H          0.61048        4.21021        0.49062
H          0.72446        2.97306        2.60143
H         -0.72636        2.53825        1.69709
H          0.83824        0.71440        2.71072
H          0.17633        0.46005        1.25061
H          0.87320        3.09564       -1.56112
H          1.00535        1.54663       -0.90737
C          0.96259        3.17529        0.51180
C          0.36799        2.44564        1.71155
N          0.56604        2.53148       -0.77133
N          0.82515        1.05933        1.75813
H          3.66182       -0.86854       -1.37214
H          3.27893        0.35931       -2.58775
H          4.96199        1.20004       -0.99204
H          3.49457        2.15755       -0.94678
H          2.87672        0.95796        1.09255
H          4.32193        0.17118        1.04882
H          1.25396       -0.54688       -1.80884
H          1.65357       -0.37794       -0.26423
C          3.18410        0.11028       -1.52427
C          3.90848        1.17153       -0.69139
N          1.75779        0.07009       -1.17556
N          3.84010        1.01333        0.75235
