41
2msa1dma1tma_46.log	Energy: -1027943.1883721
S         -0.17104       -1.66971       -0.18020
O         -0.41715       -0.65732       -1.25526
O          0.09010       -1.03548        1.13167
O          0.91225       -2.62278       -0.56438
H          2.33610       -1.85008       -0.21430
C         -1.66773       -2.61611       -0.06213
H         -2.48130       -1.92399        0.18718
H         -1.83794       -3.08902       -1.02977
H         -1.52673       -3.36780        0.71510
S          1.18930        2.32486       -0.14415
O          1.44112        3.72163       -0.41960
O          2.34584        1.41089       -0.14779
O          0.11803        1.81811       -1.17200
H         -0.02658        0.80340       -1.17149
C          0.38457        2.15494        1.43198
H          1.08603        2.51197        2.18734
H         -0.51140        2.77632        1.41744
H          0.14264        1.09858        1.57752
N          3.09897       -1.20386        0.12029
C          4.30583       -1.33467       -0.71869
C          3.31377       -1.44254        1.56358
H          2.71230       -0.24532        0.00568
H          4.70899       -2.34350       -0.61775
H          4.03192       -1.14839       -1.75693
H          5.04838       -0.60189       -0.39963
H          3.70491       -2.45107        1.70633
H          4.02208       -0.70702        1.94853
H          2.34743       -1.34212        2.05879
N         -3.83709       -0.09642        0.18600
C         -5.14336       -0.07752        0.81793
H         -5.76436       -0.88333        0.41512
H         -5.03527       -0.23433        1.89546
H         -5.67518        0.88065        0.65991
C         -2.96450        0.92135        0.74617
H         -2.81984        0.74068        1.81584
H         -1.99125        0.87201        0.25496
H         -3.37046        1.94284        0.61176
C         -3.93825        0.04247       -1.25847
H         -2.94283       -0.03815       -1.70447
H         -4.56457       -0.75946       -1.66194
H         -4.38181        1.01062       -1.55838
