40
2msa1dma1eda_303.log	Energy: -1038020.6579458
S          3.44475        0.13015       -0.10023
O          2.88693        0.62927        1.17449
O          2.76866        0.67053       -1.29858
O          3.52425       -1.37393       -0.12242
H          2.17646       -2.13849        0.14893
C          5.14699        0.66126       -0.17623
H          5.15848        1.75149       -0.16752
H          5.66789        0.26301        0.69444
H          5.58367        0.27864       -1.09872
S         -3.21348       -0.54706       -0.07031
O         -2.47522       -1.58999        0.66549
O         -2.54182       -0.09271       -1.31076
O         -3.58768        0.62540        0.79551
H         -2.86202        1.94094        0.35886
C         -4.77056       -1.27174       -0.55814
H         -4.55703       -2.13273       -1.19208
H         -5.29962       -1.58027        0.34372
H         -5.34340       -0.52388       -1.10656
N          1.14915       -2.41210        0.27584
C          0.42784       -1.88248       -0.91272
C          0.68463       -1.84128        1.57077
H          1.06585       -3.42592        0.29851
H          0.69509       -0.83149       -1.02116
H          0.77629       -2.42021       -1.79473
H         -0.64697       -1.98980       -0.76934
H          1.07615       -0.82468        1.63931
H         -0.40642       -1.85019        1.60010
H          1.11048       -2.43413        2.38103
H         -0.46557        3.68043        0.79835
H         -1.25465        2.58741        1.97640
H          0.83920        1.59946        0.80027
H         -0.63322        0.63284        0.68263
H          0.84561        1.60898       -1.41578
H         -0.66769        0.94752       -1.51721
H         -2.76613        3.64970        0.24516
H         -1.93112        2.69441       -0.85888
C         -0.99096        2.73133        0.92715
C         -0.16445        1.57234        0.36674
N         -2.24356        2.78668        0.12220
N         -0.11469        1.68578       -1.08839
