41
2msa1dma1tma_132.log	Energy: -1027937.8690999
S          2.93686       -0.63674        0.22762
O          2.05845       -1.72344        0.75224
O          3.33654        0.34133        1.25364
O          2.33702        0.01346       -0.97808
H          1.38008        1.27323       -0.55595
C          4.41510       -1.45279       -0.34301
H          4.86718       -1.95797        0.51072
H          4.13334       -2.17142       -1.11248
H          5.09018       -0.69715       -0.74491
S         -1.26165       -1.26648       -0.27145
O         -0.98292       -0.26094       -1.29706
O         -1.46752       -0.75450        1.08395
O         -0.16397       -2.38901       -0.27723
H          0.73032       -2.07764        0.12187
C         -2.67239       -2.21725       -0.76120
H         -3.50620       -1.50505       -0.78023
H         -2.47823       -2.64123       -1.74617
H         -2.83209       -2.99845       -0.01819
N         -4.64149        0.38078       -0.10877
C         -3.80502        1.56756       -0.21757
C         -4.89000       -0.00193        1.27543
H         -5.52271        0.54125       -0.58448
H         -2.83810        1.35810        0.24963
H         -3.62744        1.79776       -1.27175
H         -4.23857        2.45599        0.27445
H         -3.94211       -0.29801        1.73577
H         -5.33044        0.80764        1.88246
H         -5.56615       -0.86126        1.30344
N          1.00347        2.19414       -0.19054
C          0.43330        1.93707        1.15915
H         -0.36920        1.20317        1.07613
H          1.22663        1.53347        1.78974
H          0.05693        2.87944        1.56531
C          2.18398        3.08909       -0.10978
H          2.92302        2.61106        0.53507
H          2.59850        3.21582       -1.11041
H          1.87421        4.05477        0.29678
C         -0.02039        2.69110       -1.13922
H          0.44451        2.82805       -2.11626
H         -0.80665        1.94026       -1.21413
H         -0.41269        3.64303       -0.77251
