30
2msa1eda_77.log	Energy: -953201.4199377
S          2.28997       -0.13150       -0.16130
O          2.04004        1.15374       -0.81346
O          2.01978       -1.35333       -0.90488
O          1.56765       -0.16652        1.23516
H          0.62872       -0.61987        1.20798
C          3.98518       -0.14058        0.37946
H          4.60271       -0.07016       -0.51657
H          4.14816        0.71925        1.02870
H          4.17291       -1.07483        0.90746
S         -1.54686       -1.47059        0.09988
O         -2.97866       -1.53790        0.39386
O         -0.72349       -1.14161        1.31160
O         -1.21675       -0.53287       -1.02456
H         -1.88301        0.81907       -1.05097
C         -0.97022       -3.05671       -0.46136
H         -1.13148       -3.77746        0.34068
H         -1.54024       -3.33033       -1.34936
H          0.09054       -2.94970       -0.69528
H         -2.80265        3.16185        0.56869
H         -2.67511        1.45019        1.07053
H         -0.68514        2.95583        1.78539
H         -0.26408        1.48630        0.91725
H          0.09414        4.16676       -0.01661
H          0.76894        2.74859       -0.53896
H         -3.19184        1.88238       -1.37602
H         -1.59778        2.45956       -1.43997
C         -2.22588        2.23893        0.46343
C         -0.74727        2.45887        0.81213
N         -2.26468        1.82769       -0.96402
N         -0.09874        3.20532       -0.26511
