32
2msa2ma_28.log	Energy: -953968.5665851
S         -1.81473       -1.18847        0.21065
O         -1.24838       -0.69840        1.49162
O         -0.78809       -1.09523       -0.89379
O         -3.07875       -0.55552       -0.18720
C         -2.13110       -2.92731        0.43474
H         -1.19529       -3.41373        0.71095
H         -2.87043       -3.03273        1.22890
H         -2.51540       -3.32474       -0.50481
S          2.44606       -0.23483       -0.16451
O          2.55808       -0.13377        1.28471
O          1.92761        0.96344       -0.84699
O          1.62800       -1.48857       -0.59652
H          0.58445       -1.31078       -0.68498
C          4.03220       -0.63888       -0.85146
H          4.70921        0.17664       -0.59616
H          4.36818       -1.57262       -0.40092
H          3.92623       -0.73787       -1.93105
N         -0.16185        1.78947        0.92771
H         -0.46154        0.85699        1.28341
H          0.57591        1.61404        0.22701
C          0.33596        2.65449        2.01212
H          0.60795        3.62855        1.60435
H         -0.44515        2.77645        2.76284
H          1.21127        2.18601        2.46274
H         -1.01020        2.17080        0.40989
N         -2.35702        2.31521       -0.69895
H         -2.91597        1.49136       -0.46513
C         -1.77527        2.12383       -2.03614
H         -2.52889        2.04882       -2.82866
H         -1.10237        2.95410       -2.26984
H         -1.19383        1.19826       -2.03344
H         -2.97172        3.12224       -0.68466
