35
2msa1ma1dma_189.log	Energy: -978619.7565910
S          1.32650       -0.97010        0.50740
O          1.40876        0.35243        1.15858
O          1.14907       -0.94159       -0.94167
O          0.20531       -1.82228        1.18746
H         -0.72535       -1.34946        1.05938
C          2.76817       -1.89781        0.93309
H          3.61497       -1.37095        0.47309
H          2.84847       -1.92656        2.01948
H          2.65293       -2.89938        0.51844
S         -2.74869       -0.48212       -0.38702
O         -4.16948       -0.67761       -0.14034
O         -1.90725       -0.56739        0.87197
O         -2.39985        0.78487       -1.10240
H         -1.27059        1.58241       -0.29483
C         -2.17135       -1.80586       -1.43502
H         -2.37407       -2.75132       -0.93049
H         -2.72727       -1.74772       -2.37119
H         -1.10189       -1.67312       -1.60834
N          4.85135        0.02537       -0.81575
H          5.71092        0.37256       -0.40385
C          3.94266        1.13047       -1.13148
H          4.36649        1.88756       -1.80694
H          3.03714        0.72188       -1.58693
H          3.64163        1.61996       -0.20137
H          5.10989       -0.47394       -1.66022
N         -0.59404        2.12280        0.31931
C         -1.35206        2.63072        1.48206
C          0.08458        3.15732       -0.48267
H          0.11138        1.43875        0.65163
H         -2.12246        3.31885        1.13115
H         -1.81764        1.77553        1.97242
H         -0.67275        3.14156        2.16670
H         -0.65958        3.84674       -0.88431
H          0.79554        3.69989        0.14301
H          0.61154        2.66878       -1.30263
