34
2msa1a1eda_346.log	Energy: -988685.4684759
S          2.52174       -0.60759       -0.32692
O          3.20002       -1.42002       -1.31885
O          2.03241       -1.24263        0.89203
O          1.32537        0.20867       -0.99635
H          0.48380       -0.35647       -1.10785
C          3.55132        0.77301        0.11757
H          4.44163        0.35515        0.58886
H          3.81905        1.30872       -0.79320
H          2.99748        1.40236        0.81746
S         -2.06177       -0.67662       -0.42083
O         -0.89029       -1.01928       -1.27089
O         -2.99979        0.26818       -1.08913
O         -1.64396       -0.13406        0.91593
H         -1.82620        1.55779        0.84610
C         -2.91454       -2.20147       -0.12723
H         -3.15627       -2.63498       -1.09779
H         -2.23051       -2.83560        0.44808
H         -3.82057       -1.97761        0.43660
N         -0.46716       -2.88133        1.92565
H         -0.82053       -2.03155        2.35609
H          0.37126       -2.60172        1.42017
H         -0.17754       -3.51100        2.66634
H          0.19798        4.01597        1.02797
H          1.27107        3.22867       -0.11478
H         -0.96542        3.62309       -1.11965
H         -0.50501        1.91121       -1.09296
H         -2.42200        3.16932        0.77022
H         -2.69780        1.98380       -0.42421
H          0.08895        2.11846        2.32728
H          0.58390        1.10232        1.13103
C          0.38277        3.06872        0.50755
C         -0.75898        2.77008       -0.46879
N          0.66221        2.04723        1.49692
N         -2.01593        2.40130        0.24053
