35
2msa1ma1dma_220.log	Energy: -978618.4507877
S          0.00406       -2.11674       -0.43488
O          0.56683       -3.40678       -0.10179
O          0.05372       -1.22215        0.87428
O         -1.38603       -2.10102       -0.93574
H         -2.57176       -1.04441       -0.36752
C          1.01829       -1.25444       -1.60388
H          1.98654       -1.04941       -1.13107
H          1.10934       -1.91223       -2.46941
H          0.51132       -0.32261       -1.86780
S         -0.79473        2.01203       -0.20842
O         -2.11764        1.94292        0.48306
O         -0.85023        1.55869       -1.60407
O          0.26282        1.30053        0.58649
H          0.12506       -0.21600        0.71107
C         -0.32005        3.72682       -0.18144
H         -1.07722        4.28989       -0.72723
H         -0.26600        4.05232        0.85720
H          0.65087        3.81616       -0.66892
N         -3.23697       -0.47231        0.20236
H         -2.85022        0.51257        0.25542
C         -3.33385       -1.05520        1.56179
H         -3.97431       -0.42800        2.18120
H         -3.73422       -2.06656        1.49638
H         -2.32830       -1.08892        1.98035
H         -4.13722       -0.44700       -0.27093
N          3.18071        0.24889        0.29913
C          4.33757        1.00168       -0.15301
C          3.40409       -0.42335        1.56991
H          2.37575        0.86481        0.38069
H          5.16370        0.31247       -0.36088
H          4.09860        1.52566       -1.08314
H          4.69766        1.74310        0.58254
H          4.18315       -1.18424        1.44882
H          3.72245        0.26084        2.37594
H          2.48727       -0.92948        1.88185
