28
2msa1dma_95.log	Energy: -918444.6344424
S          2.30208       -0.08712       -0.00042
O          2.10803        1.20093       -0.62254
O          1.50330       -0.44295        1.17772
O          3.84570       -0.22574        0.47710
H          3.87585       -0.13975        1.44147
C          2.25097       -1.37775       -1.21084
H          1.23059       -1.38054       -1.59984
H          2.97982       -1.13590       -1.98431
H          2.48652       -2.31985       -0.71705
S         -1.77494       -1.30940       -0.04854
O         -2.23984       -2.67823       -0.14487
O         -0.80472       -0.82138       -1.02985
O         -1.14815       -1.07619        1.40852
H         -0.19346       -0.84818        1.32542
C         -3.16161       -0.20868        0.00708
H         -3.69317       -0.33719       -0.93716
H         -3.79344       -0.51096        0.84282
H         -2.79098        0.81988        0.11906
N         -1.69990        2.72795        0.07943
C         -1.11534        2.69198       -1.25670
C         -0.69795        2.59764        1.12924
H         -2.21244        3.59404        0.20554
H         -0.66480        1.70909       -1.42164
H         -1.90013        2.83828       -2.00459
H         -0.33221        3.45229       -1.41100
H         -0.20672        1.62550        1.03659
H          0.08954        3.36774        1.08142
H         -1.18082        2.64366        2.10922
