32
2msa1a1dma_90.log	Energy: -953956.4769562
S         -1.48022       -1.54435       -0.09852
O         -0.67660       -2.25728       -1.09956
O         -2.29981       -0.42554       -0.68183
O         -0.70120       -1.05205        1.06922
C         -2.67640       -2.70895        0.53893
H         -3.28996       -2.20521        1.28623
H         -3.28791       -3.05799       -0.29355
H         -2.13178       -3.54046        0.98708
S          2.88177        0.13862        0.07637
O          1.88724        1.09900       -0.38654
O          3.56564        0.37016        1.33690
O          4.01919        0.09095       -1.08218
H          4.87910        0.22011       -0.65702
C          2.21211       -1.49275        0.00206
H          1.39420       -1.52633        0.72852
H          1.79336       -1.66061       -0.99096
H          3.00987       -2.19528        0.24180
N         -4.11170        1.89091       -0.16149
H         -4.76952        1.87641        0.61118
H         -3.76937        0.93859       -0.29727
H         -4.63926        2.14204       -0.99144
N         -0.83966        1.76980        0.00180
C         -0.98103        2.90890       -0.92737
C         -1.11414        2.10270        1.41672
H         -1.47810        0.98678       -0.29025
H         -0.26572        3.68653       -0.65461
H         -0.77645        2.55940       -1.93955
H         -2.00570        3.27550       -0.85413
H         -0.38781        2.84245        1.75823
H         -2.12842        2.49888        1.47737
H         -1.02337        1.18086        1.99147
H          0.11265        1.38363       -0.07092
