37
2msa1ma1eda_357.log	Energy: -1013357.7172227
S         -1.62784        1.44197       -0.60193
O         -1.32003        1.29250        0.85963
O         -2.98514        1.92488       -0.85187
O         -1.32091        0.15937       -1.33591
H         -2.16215       -1.05675       -1.06370
C         -0.44397        2.60239       -1.24452
H         -0.57283        3.54240       -0.70650
H          0.55367        2.17737       -1.09843
H         -0.65723        2.73966       -2.30494
S          2.50498       -0.56172       -0.54424
O          3.90683       -0.96096       -0.65570
O          2.24995        0.90113       -0.57493
O          1.80922       -1.16872        0.65847
H          1.41805       -0.00126        1.61395
C          1.64109       -1.24867       -1.95051
H          1.74673       -2.33419       -1.91640
H          0.59784       -0.93248       -1.89325
H          2.11133       -0.85437       -2.85225
N          1.01667        0.82786        2.17094
H          0.17810        1.12800        1.62273
C          2.00868        1.91624        2.32029
H          1.54269        2.77794        2.79983
H          2.84658        1.55883        2.91941
H          2.36354        2.16632        1.32090
H          0.69002        0.48910        3.07269
H         -2.22506       -3.71490        0.34227
H         -0.85624       -3.02666       -0.57814
H         -0.76317       -2.63380        1.97942
H         -0.55920       -1.22832        0.94377
H         -2.69104       -1.66154        2.78998
H         -2.33904       -0.31026        1.88118
H         -3.13727       -2.43439       -1.46268
H         -3.35138       -1.61111       -0.00493
C         -1.71203       -2.79232        0.05729
C         -1.28372       -1.97179        1.28176
N         -2.66944       -1.94709       -0.70354
N         -2.45409       -1.32136        1.86839
