28
2msa1dma_77.log	Energy: -918445.8212008
S          1.82914       -1.34919        0.03011
O          2.51262       -2.60392        0.26184
O          0.83593       -0.88196        0.99865
O          1.11144       -1.43721       -1.39973
H          0.18187       -1.12276       -1.33101
C          3.01528       -0.06130       -0.24460
H          3.60112        0.02467        0.67196
H          3.65035       -0.36255       -1.07794
H          2.45882        0.86317       -0.44912
S         -2.26029       -0.18888       -0.04451
O         -1.95452        1.16399        0.36662
O         -1.54129       -0.76253       -1.18450
O         -3.83071       -0.28462       -0.42815
H         -3.90915       -0.32560       -1.39297
C         -2.22762       -1.28137        1.34683
H         -1.18742       -1.30494        1.67898
H         -2.88968       -0.87160        2.10955
H         -2.55796       -2.26490        1.01422
N          0.91554        2.42279       -0.12355
C          0.94131        3.68195       -0.85023
C          1.17393        2.58656        1.29973
H          0.00295        1.99054       -0.22976
H          1.94698        4.11421       -0.79865
H          0.70646        3.50614       -1.90355
H          0.23401        4.43157       -0.45493
H          2.19976        2.94517        1.44738
H          0.49273        3.30390        1.78762
H          1.07356        1.61748        1.79526
