32
2msa2ma_24.log	Energy: -953972.1752728
S         -2.31167        0.18296        0.56717
O         -3.76120        0.30802        0.64327
O         -1.73300        0.62448       -0.75118
O         -1.78320       -1.17902        0.90949
H         -1.01754       -1.89905       -0.29802
C         -1.59792        1.27215        1.79253
H         -1.96560        2.28197        1.60258
H         -1.93630        0.93506        2.77289
H         -0.50762        1.22578        1.72446
S          2.31195       -0.18197        0.56711
O          3.76152       -0.30615        0.64386
O          1.73391       -0.62610       -0.75063
O          1.78267        1.18026        0.90715
H          1.01742        1.89891       -0.30162
C          1.59842       -1.26947        1.79412
H          1.96641       -2.27947        1.60575
H          1.93660       -0.93075        2.77399
H          0.50811       -1.22352        1.72592
N          0.38007        2.22454       -1.08629
H         -0.48837        1.63260       -0.98264
C          1.02135        2.01882       -2.40393
H          0.31030        2.24909       -3.19778
H          1.89891        2.66044       -2.48607
H          1.33455        0.97611       -2.45242
H          0.13050        3.19854       -0.93293
N         -0.38031       -2.22556       -1.08245
H          0.48755       -1.63247       -0.98061
C         -1.02271       -2.02357       -2.40013
H         -0.31189       -2.25465       -3.19395
H         -1.89947       -2.66655       -2.48030
H         -1.33727       -0.98137       -2.45072
H         -0.12932       -3.19889       -0.92716
