35
2msa1ma1dma_215.log	Energy: -978617.0877807
S         -2.23153       -1.36103        0.16412
O         -3.02827       -0.34910       -0.55679
O         -2.04440       -1.12427        1.58864
O         -0.86791       -1.57871       -0.56084
H         -0.30772       -0.68087       -0.56386
C         -2.98513       -2.94485       -0.09616
H         -3.96169       -2.91380        0.38754
H         -3.08511       -3.11014       -1.16824
H         -2.34908       -3.70065        0.36383
S          0.98489        1.31534        0.53611
O          2.28826        1.85086        0.15420
O          0.30105        0.58886       -0.61028
O          0.03154        2.33114        1.08075
H         -1.35097        2.32876        0.31809
C          1.22070        0.09377        1.80742
H          1.91684       -0.65011        1.40596
H          1.65282        0.60373        2.66933
H          0.25056       -0.33865        2.05920
N         -2.21004        2.31717       -0.31740
H         -2.56828        1.34224       -0.34478
C         -1.81255        2.75490       -1.67706
H         -2.67592        2.73027       -2.34202
H         -1.40107        3.76238       -1.62018
H         -1.04211        2.06680       -2.02339
H         -2.92645        2.91724        0.08466
N          3.59841       -0.94543       -0.28267
C          3.05534       -1.39870       -1.55217
C          4.93367       -1.45127       -0.02427
H          3.59066        0.07100       -0.25760
H          2.88331       -2.48081       -1.51346
H          2.09722       -0.90470       -1.73093
H          3.71992       -1.19379       -2.41093
H          4.89717       -2.54059        0.09350
H          5.65607       -1.22620       -0.82973
H          5.31715       -1.02662        0.90789
