37
2msa1ma1eda_62.log	Energy: -1013371.0954736
S         -2.92470        0.16587       -0.23673
O         -4.29479       -0.03114        0.22156
O         -1.89554        0.04349        0.85903
O         -2.67941        1.41803       -1.00727
H         -1.07055        1.89740       -0.88068
C         -2.54219       -1.16439       -1.37570
H         -2.76751       -2.11391       -0.88764
H         -3.17400       -1.04167       -2.25590
H         -1.48484       -1.10176       -1.64204
S          2.31680       -0.84335       -0.33061
O          3.13441        0.37260       -0.44075
O          0.91506       -0.66114       -0.82264
O          2.30117       -1.44713        1.03616
H          0.71329       -1.60878        1.54401
C          3.06011       -2.06235       -1.40045
H          3.07005       -1.66083       -2.41386
H          4.07650       -2.24063       -1.04867
H          2.47078       -2.97841       -1.35303
N         -0.29372       -1.86061        1.71280
H         -0.45600       -1.94345        2.71378
C         -0.59575       -3.12351        1.00643
H         -1.64338       -3.38529        1.15801
H         -0.40396       -2.95688       -0.05337
H          0.05112       -3.91854        1.37757
H         -0.91869       -1.08529        1.33828
H         -0.41590        3.57882        0.68391
H         -0.55018        1.97885        1.44669
H          1.59046        3.32358        2.03753
H          1.88399        1.69471        1.43091
H          2.79610        4.05535        0.26666
H          2.94758        2.50993       -0.29553
H          0.50946        2.51714       -1.22370
H          0.30634        0.99294       -0.59172
C          0.03855        2.58777        0.75918
C          1.51276        2.68636        1.15072
N         -0.06652        1.96521       -0.58224
N          2.28992        3.21332        0.02894
