38
2msa2dma_84.log	Energy: -1003283.8186422
S          1.08379       -1.80676       -0.55868
O         -0.18942       -1.30850       -1.17968
O          0.98527       -1.95497        0.90086
O          2.25305       -0.98213       -0.98315
H          2.40519        0.28476        0.07888
C          1.32917       -3.42081       -1.26926
H          0.46860       -4.03712       -1.00833
H          1.41460       -3.30879       -2.34987
H          2.24380       -3.83809       -0.84776
S         -0.96744        2.08124       -0.49618
O         -0.60940        3.43816       -0.86363
O         -0.38048        1.53637        0.74355
O         -0.57178        1.15056       -1.69874
H         -0.42284        0.16782       -1.44823
C         -2.72450        1.91126       -0.36447
H         -3.04991        2.58876        0.42624
H         -3.15776        2.20023       -1.32227
H         -2.93590        0.86266       -0.10451
N          2.31896        1.02708        0.82052
C          2.92681        2.28929        0.35168
C          2.85990        0.49449        2.08875
H          1.29291        1.17563        0.90970
H          3.98815        2.12778        0.15820
H          2.42283        2.59915       -0.56433
H          2.79720        3.05899        1.11400
H          3.93188        0.32572        1.97488
H          2.67777        1.21285        2.88968
H          2.35323       -0.44970        2.29253
N         -2.60081       -1.14639        0.69355
C         -3.46012       -2.28465        0.41557
C         -2.35228       -0.96137        2.11499
H         -1.71224       -1.28161        0.21659
H         -4.45932       -2.10512        0.82926
H         -3.56059       -2.41588       -0.66536
H         -3.08501       -3.22956        0.84729
H         -3.29022       -0.70465        2.62207
H         -1.93473       -1.85832        2.60229
H         -1.64788       -0.13718        2.25102
