35
2msa1ma1dma_41.log	Energy: -978627.2666620
S          1.58726        1.68199        0.05124
O          2.45420        0.79529        0.84560
O          0.29826        2.01830        0.76065
O          1.33906        1.19475       -1.32933
H          0.58249       -0.35270       -1.56257
C          2.40319        3.25465       -0.10293
H          2.55388        3.65793        0.89829
H          3.35816        3.08579       -0.60074
H          1.76507        3.90960       -0.69558
S         -2.59395        0.19735       -0.01220
O         -2.49629       -1.00368       -0.85900
O         -2.81385        1.47346       -0.66800
O         -1.33534        0.22914        0.90951
H         -0.65090        1.07251        0.80636
C         -3.89636       -0.09678        1.16292
H         -4.82724       -0.18091        0.60127
H         -3.68191       -1.02346        1.69463
H         -3.93283        0.75021        1.84769
N          0.25336       -1.33946       -1.50648
H          0.72049       -1.72016       -0.61558
C          0.64087       -2.10865       -2.70154
H          0.33464       -3.14845       -2.58152
H          0.16111       -1.68743       -3.58526
H          1.72366       -2.05902       -2.82132
H         -0.76975       -1.32300       -1.36298
N          1.56148       -2.06519        0.82029
C          2.66258       -3.01279        0.68265
C          0.62281       -2.42994        1.87903
H          1.94066       -1.13371        1.01015
H          2.27661       -3.98142        0.34601
H          3.37196       -2.64392       -0.06276
H          3.20376       -3.17196        1.62706
H          0.13768       -3.37968        1.62759
H          1.11479       -2.54569        2.85604
H         -0.14615       -1.65832        1.95587
