29
2msa1a1ma_42.log	Energy: -929307.4139564
S         -2.46372        0.23994       -0.00382
O         -2.00915        1.55624        0.47289
O         -2.43594       -0.84802        0.96319
O         -1.69461       -0.15002       -1.30898
H         -0.66453       -0.26163       -1.12072
C         -4.10160        0.42934       -0.65929
H         -4.08220        1.20967       -1.41906
H         -4.41261       -0.52599       -1.08098
H         -4.74519        0.71239        0.17409
S          1.46059       -1.30724        0.03564
O          2.74443       -1.69781       -0.53480
O          0.73025       -0.30874       -0.85181
O          1.52395       -0.77368        1.42406
H          0.95179        0.79654        1.60094
C          0.39894       -2.73764        0.09951
H          0.29502       -3.13006       -0.91256
H          0.88108       -3.47138        0.74612
H         -0.56667       -2.43602        0.51017
N          0.64641        1.79141        1.45706
H         -0.34708        1.78399        1.17165
H          1.24557        2.16046        0.64953
H          0.76965        2.33643        2.30449
N          2.24911        2.25608       -0.74658
H          1.80165        1.48319       -1.24198
C          3.63333        1.88355       -0.41884
H          4.24708        1.67977       -1.30322
H          4.10168        2.68638        0.15725
H          3.62156        0.97737        0.19182
H          2.22922        3.06806       -1.35481
