38
2msa2dma_215.log	Energy: -1003271.9036116
S         -2.90132       -0.24317        0.18113
O         -3.98112       -0.92517        0.87199
O         -2.35638       -0.84256       -1.03359
O         -1.70220        0.04674        1.19201
H         -0.97759       -0.65545        1.11214
C         -3.38903        1.42998       -0.16194
H         -4.21813        1.37346       -0.86844
H         -3.71601        1.88723        0.77225
H         -2.52781        1.95042       -0.59068
S          1.08013       -1.70294       -0.20329
O          0.23905       -1.63990        1.02416
O          2.43996       -2.20173        0.05652
O          1.12291       -0.35480       -0.88807
H          2.18012        0.49099       -0.18849
C          0.25723       -2.78488       -1.34413
H          0.19871       -3.76818       -0.87682
H         -0.73841       -2.37174       -1.51700
H          0.84329       -2.82247       -2.26233
N          2.94645        0.98862        0.39158
C          4.26213        0.52753       -0.11066
C          2.70366        0.66760        1.82057
H          2.83251        1.99120        0.23861
H          4.27053       -0.56159       -0.04277
H          4.36423        0.82826       -1.15353
H          5.06247        0.96323        0.48999
H          2.80949       -0.41061        1.94503
H          3.42130        1.20288        2.44444
H          1.68331        0.95588        2.07348
N         -0.21749        2.32639       -0.67451
C         -0.06658        2.94840        0.62013
C          0.59452        2.91989       -1.71071
H         -0.06348        1.32173       -0.63142
H         -0.46764        3.96841        0.59891
H         -0.61941        2.37406        1.36770
H          0.98926        3.03657        0.95992
H          0.27953        3.95355       -1.89310
H          1.67935        2.95702       -1.46751
H          0.48137        2.35615       -2.63893
