43
2msa1eda1tma_40.log	Energy: -1062691.3754566
S          2.36931       -1.44396       -0.27612
O          3.51407       -0.88182        0.46654
O          1.38628       -0.40690       -0.69919
O          1.68471       -2.56755        0.42879
C          3.02955       -2.14499       -1.78015
H          3.52538       -1.34961       -2.33717
H          3.74160       -2.92393       -1.50652
H          2.20433       -2.56056       -2.35860
S         -1.81836        1.30968       -0.64684
O         -2.32749        0.11169       -1.34909
O         -0.92460        2.17371       -1.43270
O         -1.21404        0.94630        0.68610
C         -3.25924        2.29319       -0.24540
H         -3.74544        2.57315       -1.18047
H         -3.92988        1.69318        0.37068
H         -2.93525        3.18316        0.29546
H         -1.77916       -3.59652        1.12389
H         -1.53419       -2.32742        2.34798
H         -3.94286       -2.64351        1.76559
H         -3.38564       -1.00686        1.39782
H         -4.65632       -2.55679       -0.37514
H         -3.51840       -1.45985       -0.85194
H          0.04031       -2.18579        0.45346
H         -1.27135       -1.89318       -0.55724
C         -1.86457       -2.52666        1.32551
C         -3.29982       -2.06167        1.09825
N         -0.94160       -1.82182        0.40964
N         -3.68435       -2.29192       -0.28875
H         -0.91622       -0.79715        0.59941
N          1.55679        2.08011        0.60873
C          2.82975        2.26948       -0.13551
H          3.36615        1.32062       -0.14572
H          2.58712        2.58103       -1.15150
H          3.41631        3.03939        0.37090
C          0.79387        3.34860        0.71024
H          0.56397        3.70041       -0.29357
H         -0.13709        3.14284        1.23584
H          1.40249        4.07044        1.25977
C          1.78733        1.48180        1.95008
H          0.81334        1.27274        2.39252
H          2.36395        0.56422        1.82577
H          2.34149        2.19851        2.56053
H          1.00158        1.38329        0.07644
