42
2msa2eda_309.log	Energy: -1072754.3007664
S          2.19549       -1.53358        0.35007
O          0.90342       -2.24220        0.47356
O          2.51366       -0.68192        1.52219
O          2.29417       -0.76944       -0.93661
C          3.46834       -2.78219        0.25483
H          3.43966       -3.36247        1.17748
H          3.25834       -3.41745       -0.60585
H          4.43172       -2.28469        0.14233
S         -2.32488       -0.52133       -1.41944
O         -1.70705        0.78213       -1.14438
O         -3.49291       -0.53120       -2.28506
O         -2.65930       -1.21212       -0.03526
H         -2.97533       -0.51337        0.66494
C         -1.10456       -1.64925       -2.03527
H         -0.72298       -1.22733       -2.96590
H         -0.31328       -1.76102       -1.28850
H         -1.60058       -2.60226       -2.22003
H          1.46594        3.11112        0.84708
H          2.50289        1.66187        0.96522
H          3.62148        3.39976       -0.42363
H          3.22376        1.96608       -1.37597
H          1.81420        4.53111       -1.47813
H          2.37379        3.61523       -2.71253
H          0.22631        1.06076        0.49158
H          0.28993        1.94798       -0.96521
C          1.92523        2.29188        0.28433
C          2.78983        2.82259       -0.85055
N          0.84780        1.44908       -0.27118
N          1.95983        3.57695       -1.78936
H          1.28817        0.61291       -0.72272
H         -1.62979        0.08407        3.65320
H         -0.68529        1.54871        3.40344
H         -2.90338        2.18043        2.94825
H         -2.12223        2.03576        1.35681
H         -3.86142       -0.00817        2.54823
H         -4.24214        0.99043        1.31581
H          0.48663       -0.15796        2.30813
H         -0.80153       -0.69032        1.48906
C         -1.26831        0.78322        2.88082
C         -2.46257        1.47476        2.23192
N         -0.39620        0.14899        1.89990
N         -3.46829        0.50344        1.76137
