34
2msa1a1eda_69.log	Energy: -988705.1861913
S         -1.21772       -1.83261       -0.06631
O         -2.24885       -0.78257       -0.26980
O         -0.63504       -1.82487        1.28551
O         -0.16745       -1.78576       -1.14174
C         -2.04013       -3.39403       -0.30289
H         -2.82485       -3.47553        0.44936
H         -2.46289       -3.41008       -1.30733
H         -1.30025       -4.18492       -0.17969
S          2.47014        0.28143       -0.28181
O          2.75861        0.36424        1.14511
O          1.42202        1.18181       -0.78998
O          2.18353       -1.18028       -0.72150
H          1.15653       -1.41649       -0.85648
C          3.96807        0.61205       -1.17644
H          4.27743        1.62662       -0.92430
H          4.71794       -0.11087       -0.85581
H          3.76210        0.51774       -2.24200
N          0.26776        0.49437        2.98222
H          0.19862        0.65978        3.98002
H          1.25143        0.51679        2.71507
H         -0.05483       -0.45345        2.78205
H         -2.39816        2.93686        1.26143
H         -0.83513        3.59507        0.70981
H         -2.52671        3.99326       -0.99575
H         -1.35012        2.82632       -1.60962
H         -3.82131        2.30204       -1.89670
H         -3.00267        1.09018       -1.16083
H         -0.59470        1.32096        1.68958
H         -1.61111        0.73036        0.48073
C         -1.59844        2.83509        0.52487
C         -2.16733        2.96573       -0.88237
N         -0.96637        1.51001        0.71336
N         -3.29380        2.06105       -1.06668
H         -0.14895        1.40286        0.08815
