35
2msa1ma1dma_258.log	Energy: -978615.6152670
S          0.97971       -0.75405       -1.04819
O          1.21867        0.68641       -0.80872
O          0.03959       -1.06570       -2.11655
O          0.55469       -1.43816        0.29367
H         -0.31122       -0.98315        0.67603
C          2.54029       -1.53367       -1.32869
H          2.92410       -1.12938       -2.26648
H          3.20113       -1.28614       -0.48659
H          2.36565       -2.60604       -1.41638
S         -2.86283       -0.34095        0.63813
O         -3.83809       -0.52238        1.70193
O         -1.43576       -0.23000        1.14356
O         -3.12337        0.82255       -0.26857
H         -1.84607        1.75044       -0.28504
C         -2.88770       -1.78838       -0.40357
H         -3.88961       -1.87032       -0.82587
H         -2.14158       -1.67110       -1.19180
H         -2.66679       -2.65608        0.21938
N         -0.94854        2.32068       -0.17808
H         -0.85720        2.50135        0.82039
C         -0.96671        3.55933       -0.98112
H         -0.03029        4.10158       -0.84882
H         -1.08528        3.28741       -2.02937
H         -1.80732        4.18018       -0.67174
H         -0.15518        1.70179       -0.44142
N          4.22015       -0.18940        1.13489
C          3.21917       -0.01984        2.18125
C          4.51872        1.05533        0.43979
H          5.07012       -0.57149        1.53488
H          2.27711        0.29736        1.72502
H          3.04052       -0.97508        2.68050
H          3.50479        0.72961        2.93878
H          3.62079        1.38581       -0.09275
H          4.83757        1.86849        1.11415
H          5.30869        0.88743       -0.29797
