38
2msa2dma_60.log	Energy: -1003285.8949957
S         -0.20477        1.85387        0.06813
O          0.80707        2.13057        1.09301
O         -1.43005        1.17193        0.57275
O          0.34840        1.09320       -1.10695
C         -0.75006        3.41968       -0.58756
H         -1.48840        3.23213       -1.36711
H         -1.18647        3.99046        0.23237
H          0.12002        3.93478       -0.99496
S          3.10431       -0.75688       -0.01806
O          4.25807       -1.54134       -0.39979
O          1.90336       -1.47600        0.44320
O          2.71714        0.15493       -1.24176
H          1.78730        0.56332       -1.15074
C          3.54760        0.40327        1.25079
H          3.80612       -0.17511        2.13863
H          4.40843        0.96903        0.89433
H          2.68779        1.05368        1.43172
N         -0.81228       -1.50775        0.01096
C         -1.05466       -1.80293       -1.41748
C         -1.32875       -2.53608        0.93563
H          0.20981       -1.39733        0.15636
H         -2.12972       -1.90908       -1.56417
H         -0.66777       -0.96577       -1.99831
H         -0.53130       -2.72273       -1.68323
H         -2.40496       -2.62011        0.78322
H         -0.82880       -3.48403        0.73159
H         -1.11749       -2.22407        1.95861
H         -1.23199       -0.58408        0.23892
N         -3.79493       -0.50956       -0.00037
C         -4.31371       -0.52688        1.35956
C         -4.84025       -0.63241       -1.00375
H         -3.27635        0.35489       -0.13403
H         -4.73580       -1.51424        1.58212
H         -3.49927       -0.33141        2.06226
H         -5.10395        0.22209        1.53591
H         -5.31502       -1.61679       -0.92266
H         -5.63280        0.12946       -0.90908
H         -4.40456       -0.54997       -2.00398
