38
2msa1ma1tma_125.log	Energy: -1003268.5372304
S         -1.70454       -1.35426        0.26983
O         -0.89134       -1.15886       -0.96011
O         -3.09739       -1.78018       -0.06706
O         -1.72563       -0.13308        1.12878
H         -3.13495        0.80885        0.57284
C         -0.95647       -2.65947        1.20913
H         -0.97310       -3.55997        0.59433
H          0.06783       -2.35394        1.43219
H         -1.54100       -2.79831        2.11845
S          2.63888       -1.04746       -0.22226
O          3.65079       -2.07008       -0.40579
O          1.82552       -1.05735        0.99254
O          1.66606       -1.07107       -1.48053
H          0.70368       -1.10269       -1.20433
C          3.39842        0.54838       -0.39550
H          4.13715        0.63239        0.40320
H          3.88867        0.57992       -1.36889
H          2.62715        1.32243       -0.30312
N         -3.93880        0.73816       -0.09483
H         -4.00441       -0.31101       -0.15841
C         -3.56912        1.30336       -1.41624
H         -4.37462        1.12056       -2.12664
H         -3.38244        2.37197       -1.31583
H         -2.66191        0.79608       -1.74778
H         -4.78406        1.14689        0.29564
N          0.93422        2.70396        0.23510
C          0.72162        2.19553        1.58240
H          0.56031        1.11619        1.55229
H          1.60524        2.40170        2.19434
H         -0.15573        2.66485        2.06801
C          1.19325        4.13055        0.23583
H          2.06854        4.35024        0.85455
H          1.39888        4.47441       -0.78264
H          0.33823        4.71387        0.63187
C         -0.17366        2.36468       -0.63500
H          0.03546        2.69939       -1.65631
H         -0.32458        1.28281       -0.64195
H         -1.11998        2.84303       -0.30105
