28
2msa1dma_04.log	Energy: -918473.4652269
S         -2.02984       -0.74620       -0.00623
O         -2.37167        0.52576       -0.70845
O         -1.62086       -0.53908        1.38886
O         -1.02863       -1.54699       -0.79134
C         -3.51304       -1.73029       -0.02981
H         -4.29111       -1.17891        0.49831
H         -3.79353       -1.89923       -1.06928
H         -3.29790       -2.67355        0.47221
S          2.17503       -0.51789        0.04772
O          2.22759       -0.07918        1.43304
O          1.74334        0.50301       -0.93019
O          1.33757       -1.81355       -0.13250
H          0.31702       -1.65952       -0.37363
C          3.77549       -1.10615       -0.44704
H          4.47181       -0.27320       -0.34732
H          4.05455       -1.92183        0.21982
H          3.71469       -1.44598       -1.48020
N         -0.31209        2.18864       -0.14178
C         -0.29622        3.43546       -0.93006
C         -0.20935        2.38006        1.32428
H         -1.18014        1.63263       -0.36245
H          0.64115        3.96491       -0.75208
H         -0.38378        3.18484       -1.98727
H         -1.13823        4.06132       -0.63060
H          0.75670        2.82873        1.55885
H         -1.02255        3.02910        1.65284
H         -0.29991        1.40325        1.80012
H          0.47271        1.57824       -0.45038
