29
2msa1a1ma_102.log	Energy: -929295.7257517
S         -2.93466       -0.11947       -0.24414
O         -2.41743        0.73477       -1.32490
O         -3.14508        0.56866        1.03054
O         -2.03884       -1.38215       -0.05951
H         -1.11837       -1.10593        0.35294
C         -4.43891       -0.88257       -0.78536
H         -5.16159       -0.08257       -0.94717
H         -4.23553       -1.41657       -1.71311
H         -4.77751       -1.56166       -0.00352
S          1.39060       -0.26887        0.45849
O          1.65057       -1.03626       -0.75810
O          0.01245       -0.49846        1.03345
O          1.60012        1.21099        0.31818
H          0.23198        1.94971        0.33225
C          2.53179       -0.80539        1.71067
H          2.33822       -1.86177        1.89993
H          3.53842       -0.66855        1.30278
H          2.36597       -0.21252        2.60992
N         -0.77536        2.33059        0.34437
H         -1.27343        1.99152       -0.49611
H         -0.80019        3.34456        0.39892
H         -1.27381        1.91409        1.13662
N          4.75667       -0.65607       -0.74535
H          5.53714       -1.19509       -1.10334
C          4.84999        0.74127       -1.16504
H          4.90874        0.88864       -2.25403
H          3.96977        1.27742       -0.80003
H          5.73414        1.20039       -0.71170
H          3.90036       -1.06998       -1.10607
