35
2msa1ma1dma_295.log	Energy: -978614.0809687
S          1.31622       -1.13104        0.33317
O          1.73537       -0.09745        1.28531
O          0.97657       -0.65370       -1.00951
O          0.13242       -1.97014        0.92529
H         -0.73751       -1.39560        0.94237
C          2.57614       -2.36984        0.22194
H          3.47632       -1.84697       -0.11703
H          2.72266       -2.79857        1.21323
H          2.24987       -3.12528       -0.49217
S         -2.81845       -0.30280       -0.24017
O         -4.21260       -0.56489        0.08406
O         -1.87335       -0.48800        0.92144
O         -2.56856        1.05069       -0.84335
H         -1.51664        1.89119       -0.14919
C         -2.29710       -1.47332       -1.48104
H         -2.44038       -2.47672       -1.07787
H         -2.92613       -1.32349       -2.35879
H         -1.24660       -1.28929       -1.71236
N          4.46308        0.37510       -0.14484
H          3.80792        0.53083        0.61677
C          4.04766        1.11430       -1.33517
H          3.95642        2.20234       -1.19017
H          4.76805        0.94165       -2.13976
H          3.08034        0.73099       -1.67271
H          5.37905        0.67612        0.16825
N         -0.81516        2.60411        0.26324
C          0.38752        2.63883       -0.60351
C         -0.53231        2.28076        1.68492
H         -1.29838        3.50012        0.21250
H          0.81412        1.63635       -0.63810
H          0.08426        2.93627       -1.60773
H          1.11336        3.34710       -0.19940
H          0.05772        1.36549        1.72089
H          0.02526        3.10393        2.13654
H         -1.47979        2.12411        2.19933
