42
2msa2eda_48.log	Energy: -1072770.3483234
S         -2.78792        0.58975       -0.38013
O         -3.19899       -0.61343        0.36911
O         -1.54503        0.31364       -1.20646
O         -2.63206        1.82062        0.40909
C         -4.06640        0.89261       -1.58959
H         -4.16196        0.00798       -2.21922
H         -4.99545        1.08369       -1.05173
H         -3.78098        1.76103       -2.18353
S          2.84169       -0.75978       -0.44936
O          2.86669        0.57581       -1.11225
O          2.31823       -1.83804       -1.33061
O          2.14249       -0.71992        0.85848
C          4.54856       -1.16574       -0.12858
H          5.07538       -1.19192       -1.08254
H          4.96522       -0.39707        0.52242
H          4.58049       -2.14130        0.35660
H         -0.48946        2.23570        1.26248
H          0.90971        1.12593        1.37451
H          1.40767        3.33994        2.46764
H          2.48211        3.00260        1.10375
H          0.18856        4.83097        1.03126
H          1.75280        5.14948        0.66189
H         -0.24559        1.41281       -0.85773
H          0.52977        2.92151       -0.88735
C          0.55001        2.07268        0.96721
C          1.44683        3.23314        1.37575
N          0.56944        1.96626       -0.51617
N          1.03748        4.43295        0.64226
H          1.45243        1.50080       -0.83513
H         -2.19961       -2.66517       -0.51449
H         -0.93719       -3.88271       -0.83087
H         -2.21167       -4.16282        1.36844
H         -0.45180       -4.08172        1.55471
H         -2.20020       -1.73919        1.92199
H         -1.34683       -2.53795        3.10541
H         -0.68128       -1.12562       -0.75682
H         -0.00121       -1.63892        0.65635
C         -1.23761       -3.05851       -0.18228
C         -1.33904       -3.49977        1.27965
N         -0.24942       -1.95373       -0.29588
N         -1.38150       -2.31256        2.12012
H          0.64205       -2.17389       -0.78033
