29
2msa1a1ma_147.log	Energy: -929287.8915344
S          1.81116        0.11728        0.03342
O          0.78021       -0.00045       -1.00909
O          2.96384        0.95065       -0.29281
O          2.30953       -1.33204        0.40784
H          3.30826       -1.44570        0.14724
C          1.03923        0.66575        1.52362
H          0.56014        1.62150        1.27254
H          0.28237       -0.07146        1.79967
H          1.81142        0.76494        2.28624
S         -2.38149       -0.91786        0.06594
O         -2.89873        0.41833       -0.19748
O         -1.71058       -1.15305        1.33801
O         -1.44640       -1.39002       -1.12986
H         -0.57358       -0.90317       -1.09495
C         -3.68534       -2.10442       -0.14781
H         -4.42790       -1.89271        0.62210
H         -4.11251       -1.97412       -1.14164
H         -3.26699       -3.10210       -0.02033
N          4.82653       -1.42227       -0.29377
H          4.93729       -0.43485       -0.51771
H          5.03115       -1.96316       -1.12788
H          5.50465       -1.66981        0.41945
N         -0.72330        2.76471       -0.18870
H         -0.23177        2.59975       -1.06141
C         -1.18600        4.14646       -0.10426
H         -1.87523        4.44932       -0.90673
H         -1.69764        4.29607        0.85093
H         -0.32614        4.82296       -0.12290
H         -1.51103        2.12057       -0.17929
