41
2msa1dma1tma_50.log	Energy: -1027943.1125251
S          0.80680       -1.81348       -0.72008
O          1.78041       -2.70054       -1.31793
O         -0.59620       -2.52711       -0.79532
O          0.69076       -0.46362       -1.31047
H         -0.46298        0.77634       -1.41212
C          1.11109       -1.61456        1.01445
H          0.31536       -0.98903        1.42715
H          1.12469       -2.60747        1.46399
H          2.07901       -1.10716        1.11145
S         -2.55173        0.02738        0.96384
O         -3.22827        0.72528       -0.16913
O         -1.29232        0.69731        1.35296
O         -2.36863       -1.43004        0.70433
H         -1.30627       -2.05592       -0.24186
C         -3.67688        0.11541        2.34040
H         -3.85702        1.16743        2.56152
H         -4.60199       -0.38558        2.05586
H         -3.21104       -0.38517        3.18925
N         -1.12057        1.54950       -1.64411
C         -1.30546        1.58213       -3.10807
C         -0.61435        2.80553       -1.05152
H         -2.01991        1.28874       -1.16355
H         -0.34717        1.78270       -3.58918
H         -1.67965        0.61136       -3.43295
H         -2.02522        2.36069       -3.36509
H          0.37053        3.02853       -1.46545
H         -1.31022        3.61436       -1.28011
H         -0.54980        2.65798        0.02693
N          3.40822        0.73098        0.94281
C          4.39795        1.10016        1.93773
H          3.93427        1.13091        2.92821
H          5.19895        0.35552        1.95735
H          4.85163        2.09036        1.73815
C          3.99657        0.61520       -0.38157
H          4.79293       -0.13418       -0.36897
H          3.23549        0.29092       -1.09649
H          4.42644        1.57288       -0.73492
C          2.28105        1.64604        0.94146
H          1.53422        1.29255        0.22611
H          1.81186        1.66821        1.92944
H          2.57554        2.67980        0.67147
