40
2msa1dma1eda_541.log	Energy: -1038006.0066289
S         -0.79128        2.12855        0.22663
O         -1.60996        3.27267       -0.18244
O         -0.17627        1.41277       -0.94085
O         -1.54175        1.15586        1.09298
H         -2.85339        0.76688        0.43185
C          0.56684        2.68594        1.22829
H          1.17831        3.35297        0.61970
H          0.15867        3.21180        2.09141
H          1.12575        1.79930        1.53264
S          0.90837       -1.62419        0.50470
O         -0.06924       -2.51814        1.11257
O          1.44254       -0.52130        1.29760
O          0.29791       -1.06071       -0.84411
H          0.15883       -0.04288       -0.82281
C          2.26230       -2.58685       -0.11849
H          2.71890       -3.07901        0.74163
H          1.86614       -3.32549       -0.81561
H          2.96552       -1.89822       -0.60337
N          4.17948       -0.03841       -1.02210
C          4.77290        0.12721        0.29785
C          3.24054        1.02857       -1.34554
H          4.91065       -0.07382       -1.72411
H          3.98567        0.03502        1.05313
H          5.51026       -0.66154        0.47452
H          5.26750        1.10419        0.43728
H          2.42083        1.01558       -0.62328
H          3.69781        2.03303       -1.32231
H          2.80894        0.86258       -2.33553
H         -3.90961       -0.51966       -2.04925
H         -2.23934       -0.01480       -1.66663
H         -2.57311       -2.50600       -1.34604
H         -2.08928       -1.68938        0.12955
H         -4.74583       -2.73454       -0.45483
H         -3.88689       -2.76343        0.93648
H         -4.08033        1.33142       -0.58777
H         -4.37306       -0.05781        0.32801
C         -3.15776       -0.44134       -1.25863
C         -2.90655       -1.78868       -0.58844
N         -3.67723        0.47675       -0.20898
N         -4.11824       -2.19467        0.13077
