38
2msa2dma_56.log	Energy: -1003285.7481899
S         -2.65761        0.44759       -0.35120
O         -3.64801        0.60608       -1.40578
O         -2.58523        1.49837        0.67790
O         -1.23676        0.25292       -0.92077
C         -2.98945       -1.09349        0.49225
H         -3.96388       -0.99776        0.97221
H         -3.00879       -1.89470       -0.24783
H         -2.20304       -1.25624        1.23116
S          0.87364       -2.07530        0.17887
O          0.38730       -1.26896        1.30181
O          2.28348       -1.92197       -0.17579
O         -0.02984       -1.85086       -1.06797
H         -0.61273       -0.93748       -1.01454
C          0.57903       -3.79338        0.52514
H         -0.47906       -3.92280        0.75157
H          0.86382       -4.37094       -0.35424
H          1.19736       -4.06389        1.38154
N          0.39948        1.84273        0.69067
C          0.08829        3.15919        0.09753
C          0.25190        1.79527        2.15878
H         -0.24238        1.15390        0.25276
H          0.77696        3.90797        0.49436
H          0.19944        3.08456       -0.98471
H         -0.94557        3.41292        0.33510
H          0.92018        2.53214        2.60964
H         -0.78749        2.01305        2.40710
H          0.50986        0.79086        2.49254
H          1.37801        1.54182        0.39394
N          2.84310        1.01898       -0.37319
C          4.06561        1.71739        0.01044
C          2.56544        1.10376       -1.80751
H          2.91457        0.03069       -0.12937
H          3.94678        2.79135       -0.16932
H          4.25447        1.56719        1.07637
H          4.94658        1.37438       -0.55210
H          2.40766        2.15086       -2.08814
H          3.38437        0.70358       -2.42147
H          1.65562        0.54290       -2.03676
