40
2msa1dma1eda_312.log	Energy: -1038018.2703602
S         -0.43953        2.42382       -0.48908
O         -0.09771        3.79393       -0.80570
O          0.57397        1.39473       -0.77764
O         -1.77596        2.07455       -1.22868
C         -0.85386        2.27938        1.23700
H          0.04189        2.54937        1.79906
H         -1.66377        2.97727        1.44932
H         -1.15068        1.24671        1.44046
S         -2.26959       -1.30176        0.13533
O         -1.27794       -1.11229        1.23503
O         -1.71601       -2.08790       -0.98048
O         -2.87847       -0.00200       -0.28238
H         -2.17717        1.18643       -0.91354
C         -3.62906       -2.22440        0.82608
H         -4.04228       -1.65659        1.65953
H         -4.37559       -2.36073        0.04350
H         -3.24466       -3.18651        1.16543
N          2.82143       -0.51597        1.92791
C          1.78648       -0.37162        2.95011
C          3.29260        0.76782        1.40921
H          3.60554       -1.03975        2.30097
H          0.87033        0.01106        2.48801
H          1.55065       -1.34862        3.37851
H          2.07849        0.31145        3.76211
H          2.46828        1.27164        0.89368
H          3.66989        1.43523        2.19870
H          4.07809        0.58922        0.67237
H          1.78331       -3.06226       -1.05788
H          0.47223       -2.22508       -1.91117
H          2.54011       -1.95459       -3.20545
H          2.06300       -0.39460       -2.53137
H          4.23961       -2.07809       -1.53357
H          4.28681       -0.51239       -1.99623
H          0.31916       -1.60034        0.34113
H          1.95136       -1.18053        0.47894
C          1.42077       -2.08460       -1.38961
C          2.44590       -1.38636       -2.26915
N          1.14165       -1.26962       -0.18766
N          3.70770       -1.21391       -1.54968
H          0.88577       -0.30431       -0.45941
