42
2msa2eda_415.log	Energy: -1072751.5915445
S          2.17654        0.28206       -1.39111
O          3.57222        0.34717       -1.81527
O          1.79147        1.24879       -0.32400
O          1.74412       -1.10809       -0.97979
H          1.20852       -1.02457        0.49861
C          1.15204        0.68347       -2.79798
H          1.45135        1.67002       -3.15417
H          1.32675       -0.06569       -3.57106
H          0.10697        0.69132       -2.48093
S         -2.13606        1.56225        0.07641
O         -3.44307        2.05503        0.48227
O         -2.00509        1.01506       -1.27349
O         -1.64519        0.45845        1.11753
H         -2.17105       -0.44340        0.97267
C         -0.89741        2.80005        0.34157
H         -1.16936        3.64496       -0.29282
H         -0.92226        3.08494        1.39350
H          0.07108        2.38097        0.05299
H          1.24086       -1.42648        3.47364
H          2.27551       -2.28425        2.29944
H          3.38844       -0.28591        3.40655
H          3.37448       -0.21617        1.64199
H          2.41664        1.73942        3.25122
H          1.97879        1.51233        1.67757
H          0.09615       -1.89850        1.33452
H          0.22749       -0.25059        1.63226
C          1.76284       -1.34392        2.51688
C          2.73802       -0.16730        2.53481
N          0.75251       -1.11680        1.45991
N          1.99516        1.08740        2.60331
H         -3.25675       -3.15621       -0.85890
H         -3.32805       -1.42719       -1.25784
H         -1.33754       -2.47485       -2.23830
H         -0.92091       -1.19161       -1.11113
H         -0.75566       -4.05590       -0.50041
H          0.46052       -2.98135       -0.67971
H         -3.80701       -1.75792        1.05480
H         -2.38001       -2.52719        1.29258
C         -2.77963       -2.18106       -0.68784
C         -1.33867       -2.19878       -1.17525
N         -2.84217       -1.80930        0.73964
N         -0.50000       -3.08290       -0.35328
