41
2msa1dma1tma_124.log	Energy: -1027936.9453432
S         -2.50691       -1.14992       -0.51926
O         -3.93515       -1.06645       -0.81388
O         -2.22574       -1.08407        0.96173
O         -1.67100       -0.12842       -1.22864
H         -1.54926        1.23336       -0.45971
C         -1.88410       -2.72240       -1.07109
H         -2.42148       -3.50344       -0.53245
H         -2.06867       -2.79699       -2.14297
H         -0.81398       -2.75047       -0.85699
S          1.22359       -0.62769        0.93223
O          1.22757        0.76726        0.47007
O          1.20709       -1.66906       -0.08716
O          0.04797       -0.83394        1.95388
H         -0.87868       -0.97063        1.48934
C          2.61787       -0.86296        2.00151
H          3.49778       -0.67552        1.37635
H          2.55275       -0.14033        2.81485
H          2.59205       -1.88536        2.37735
N          4.18424        0.28204       -0.68928
C          4.18892       -0.73344       -1.73235
C          5.24832        1.25878       -0.84299
H          3.28327        0.75196       -0.68011
H          5.10075       -1.33554       -1.64901
H          3.32761       -1.39275       -1.60071
H          4.15712       -0.31094       -2.75190
H          6.21863        0.76584       -0.71606
H          5.25355        1.75521       -1.82976
H          5.16064        2.02754       -0.06981
N         -1.70742        2.20399       -0.04146
C         -3.09270        2.55613       -0.43739
H         -3.15999        2.54819       -1.52531
H         -3.77330        1.80151       -0.04055
H         -3.34137        3.54465       -0.04430
C         -1.57068        2.10588        1.43327
H         -2.23888        1.32048        1.78850
H         -0.54067        1.83682        1.66320
H         -1.83058        3.06956        1.87852
C         -0.70013        3.11366       -0.63368
H          0.28853        2.73380       -0.37757
H         -0.82496        3.11434       -1.71706
H         -0.84633        4.12178       -0.23768
