28
2msa1dma_02.log	Energy: -918476.2526114
S         -1.75697       -0.99662       -0.08353
O         -1.23669       -0.63517        1.25303
O         -0.73278       -1.67104       -0.93249
O         -2.38659        0.16886       -0.77107
C         -3.04965       -2.20105        0.13096
H         -3.44450       -2.45443       -0.85273
H         -2.61638       -3.07809        0.61160
H         -3.82393       -1.75808        0.75742
S          2.37809       -0.27047       -0.02736
O          1.68455        1.02463        0.09159
O          3.80803       -0.23839       -0.23608
O          1.74472       -1.09822       -1.20384
H          0.74595       -1.26278       -1.09319
C          1.98377       -1.21802        1.42438
H          2.44774       -0.70825        2.26984
H          0.89602       -1.24510        1.53432
H          2.40771       -2.21410        1.29682
N         -0.77484        2.20661       -0.03503
C         -0.61192        3.29476       -1.01895
C         -1.19443        2.63919        1.31485
H         -1.46580        1.49463       -0.38782
H          0.14164        3.99793       -0.66149
H         -0.28734        2.86141       -1.96479
H         -1.56686        3.80471       -1.15404
H         -0.43924        3.30796        1.73083
H         -2.15352        3.15445        1.24281
H         -1.29560        1.74363        1.92860
H          0.12353        1.68859        0.04490
