35
2msa1ma1dma_289.log	Energy: -978613.9247125
S         -1.79568        0.38335       -0.98450
O         -1.21071        1.70728       -0.79920
O         -3.22424        0.29803       -1.29420
O         -1.51781       -0.47234        0.30923
H         -2.42550       -0.92675        0.65565
C         -0.86876       -0.46798       -2.23369
H         -0.99568        0.09338       -3.16057
H          0.18389       -0.49434       -1.92778
H         -1.28122       -1.47194       -2.33823
S          2.51438       -1.18661        0.09388
O          3.82105       -1.83422        0.00206
O          2.07823       -0.44153       -1.11307
O          2.37687       -0.29707        1.31313
H          2.14072        1.10938        0.96090
C          1.29891       -2.47168        0.35851
H          1.33821       -3.14987       -0.49532
H          1.56047       -3.00238        1.27458
H          0.31844       -2.00123        0.44541
N         -3.76520       -1.41891        1.06425
H         -4.24619       -1.50449        0.17147
C         -4.41630       -0.38503        1.88447
H         -5.46460       -0.61266        2.10166
H         -3.87183       -0.27874        2.82473
H         -4.36422        0.56196        1.34406
H         -3.78801       -2.32442        1.52328
N          2.01377        2.19528        0.84813
C          0.81645        2.60312        1.61732
C          1.96757        2.57276       -0.58537
H          2.84828        2.59398        1.27600
H         -0.05592        2.14909        1.14670
H          0.92281        2.24338        2.64122
H          0.71621        3.69065        1.60330
H          1.04982        2.16866       -1.00964
H          1.97868        3.66161       -0.67521
H          2.82194        2.12391       -1.09003
