32
2msa2ma_212.log	Energy: -953955.6138232
S         -1.16728       -1.14544        0.02768
O         -2.37948       -1.65579        0.65877
O         -0.25155       -0.43501        1.00196
O         -1.40845       -0.24821       -1.14326
H         -0.71930        1.17346       -0.98340
C         -0.23588       -2.53144       -0.59342
H         -0.01348       -3.19168        0.24563
H         -0.86275       -3.04318       -1.32412
H          0.67949       -2.15996       -1.05766
S          2.83050        0.11684       -0.04400
O          2.40705        1.52887       -0.08280
O          2.59537       -0.65424       -1.25623
O          2.21111       -0.58903        1.20506
H          1.16219       -0.58194        1.14337
C          4.54897        0.06896        0.38983
H          5.09343        0.55055       -0.42275
H          4.68499        0.60790        1.32669
H          4.84358       -0.97550        0.48829
N         -0.24724        2.10338       -0.75945
H          0.75880        1.90371       -0.59601
C         -0.85096        2.69434        0.45978
H         -0.31593        3.60468        0.72988
H         -1.90213        2.90952        0.27081
H         -0.76860        1.95111        1.25247
H         -0.33071        2.71891       -1.56531
N         -4.99535       -0.02681       -0.02276
H         -5.68385       -0.13426        0.71399
C         -4.32575        1.26067        0.08843
H         -3.81045        1.43154        1.04962
H         -3.57842        1.32907       -0.70856
H         -5.04922        2.07006       -0.05841
H         -4.31176       -0.77034        0.09630
