35
2msa1ma1dma_319.log	Energy: -978610.6162944
S         -1.15316        0.17534       -0.33656
O         -0.21007        0.00351        0.80122
O         -2.19754        1.19806       -0.02334
O         -1.78981       -1.11694       -0.74705
H         -3.43374       -1.07732       -0.28896
C         -0.21759        0.77166       -1.71625
H          0.28801        1.69499       -1.40443
H          0.52175        0.00928       -1.96987
H         -0.91159        0.94267       -2.53976
S          3.03404       -0.85254       -0.01701
O          3.52252        0.47220        0.34917
O          2.55263       -1.04674       -1.37905
O          1.94980       -1.34957        1.02026
H          1.07686       -0.84079        0.90714
C          4.30231       -2.04765        0.33331
H          5.13622       -1.82077       -0.33152
H          4.59910       -1.94054        1.37618
H          3.90489       -3.04197        0.13309
N          1.72942        2.99664       -0.25987
H          2.43145        2.26712       -0.15635
C          1.08416        3.25135        1.02773
H          1.77027        3.58802        1.81975
H          0.30507        4.01007        0.90331
H          0.59706        2.33319        1.36529
H          2.20626        3.82722       -0.59354
N         -4.20093       -0.53188        0.18108
C         -4.37425       -1.02571        1.56201
C         -5.42721       -0.48363       -0.63364
H         -3.70486        0.39356        0.19938
H         -4.77327       -2.04083        1.53686
H         -3.39846       -1.02289        2.04863
H         -5.05853       -0.36910        2.10135
H         -5.84709       -1.48680       -0.72297
H         -6.15391        0.17885       -0.16058
H         -5.17385       -0.10234       -1.62291
