40
2msa1dma1eda_508.log	Energy: -1038008.8082578
S          0.74021        2.41967       -0.04214
O          0.38807        3.80189       -0.30216
O          2.08752        1.94443       -0.32491
O         -0.30594        1.53933       -0.85870
H         -0.06333        0.54923       -0.89300
C          0.35573        2.02632        1.65155
H          1.09638        2.53430        2.27063
H         -0.64387        2.40513        1.86679
H          0.39647        0.94199        1.78074
S         -0.31450       -1.83204        0.19290
O         -0.51268       -1.05873        1.43256
O          0.09044       -0.97345       -0.96398
O         -1.52443       -2.64951       -0.16368
H         -2.74486       -1.82579       -0.55502
C          1.00146       -2.99170        0.44609
H          1.91254       -2.40328        0.61580
H          0.74069       -3.60986        1.30545
H          1.09186       -3.59647       -0.45666
N          3.41357       -0.83624        0.00759
C          3.54708       -1.35470       -1.34497
C          4.69781       -0.62380        0.65349
H          2.91101        0.04662       -0.03513
H          3.98775       -2.35911       -1.31208
H          2.55682       -1.42666       -1.80279
H          4.18601       -0.72870       -1.99139
H          5.19909       -1.58730        0.80418
H          5.37841        0.02273        0.07224
H          4.54598       -0.16686        1.63528
H         -5.10913       -0.30171        0.45150
H         -3.83319       -1.14839        1.37320
H         -3.58427        1.41042        1.34330
H         -2.17485        0.51120        0.77377
H         -3.96332        2.11210       -0.85858
H         -2.34873        1.79779       -1.02145
H         -4.37148       -1.88541       -1.06283
H         -3.47006       -0.50988       -1.42718
C         -4.03911       -0.51901        0.50601
C         -3.21001        0.77182        0.53490
N         -3.64862       -1.25468       -0.72684
N         -3.25195        1.39530       -0.78425
