41
2msa1dma1tma_116.log	Energy: -1027936.2066077
S         -0.83802       -1.75265       -0.26923
O          0.35275       -2.54271       -0.58336
O         -1.33851       -0.83785       -1.29096
O         -0.63046       -1.00520        1.08672
H         -0.27818        0.00170        0.99737
C         -2.15029       -2.86288        0.18521
H         -2.38012       -3.46500       -0.69449
H         -1.80966       -3.49225        1.00693
H         -3.01263       -2.26364        0.48031
S          0.77057        1.98413       -0.17297
O          1.59454        3.13501        0.18209
O          0.21661        1.28959        1.05280
O          1.45522        0.97554       -1.04350
H          2.35924       -0.07456       -0.33533
C         -0.63909        2.52554       -1.10934
H         -1.25142        3.16365       -0.47210
H         -0.27083        3.07689       -1.97473
H         -1.19361        1.63965       -1.41806
N         -3.64997        0.91584       -0.05871
C         -4.93967        0.29403       -0.28315
C         -3.33100        1.06438        1.35004
H         -2.92471        0.38141       -0.52675
H         -5.73602        0.95269        0.08197
H         -5.09644        0.13981       -1.35412
H         -5.06137       -0.68119        0.22890
H         -4.03418        1.76719        1.81166
H         -3.38483        0.11607        1.91740
H         -2.32158        1.46755        1.46395
N          3.14379       -0.62385        0.13748
C          3.51769       -1.73629       -0.76768
H          2.63544       -2.35851       -0.92036
H          3.84090       -1.31528       -1.72026
H          4.32990       -2.31129       -0.31604
C          4.23301        0.36801        0.30591
H          4.51253        0.75123       -0.67543
H          3.86066        1.19558        0.91132
H          5.08900       -0.10879        0.78900
C          2.64191       -1.11393        1.44524
H          2.23734       -0.26631        2.00006
H          1.84843       -1.83752        1.26264
H          3.46815       -1.57487        1.99221
