37
2msa1ma1eda_337.log	Energy: -1013356.8982726
S          0.98638       -2.07071       -0.38580
O          1.83715       -1.28671        0.55721
O          1.22707       -1.75813       -1.79638
O         -0.46324       -1.95843        0.00481
C          1.39713       -3.78147       -0.10366
H          2.45225       -3.91649       -0.34249
H          1.20508       -4.01322        0.94374
H          0.77372       -4.39002       -0.75883
S         -2.91018        0.28588        0.30056
O         -4.05671        1.01114       -0.20208
O         -1.92920        1.02618        1.10918
O         -2.18373       -0.37621       -0.92929
H         -1.43787       -1.01922       -0.62632
C         -3.43412       -1.11380        1.26669
H         -3.91844       -0.72513        2.16289
H         -4.13335       -1.69575        0.66653
H         -2.54826       -1.69922        1.51890
N          3.74550        1.03658        0.27237
H          3.50945        0.10970       -0.07634
C          4.09991        0.94128        1.68925
H          5.00140        0.34731        1.89485
H          4.24968        1.94384        2.10174
H          3.27207        0.47346        2.23000
H          4.53380        1.37544       -0.26830
H          1.64352        1.43958       -1.44409
H         -0.04333        0.88640       -1.46469
H          0.12927        3.27321       -2.21656
H         -0.83144        3.11436       -0.74087
H          1.95875        4.02454       -0.82487
H          0.65137        4.81279       -0.22477
H          1.24383        0.34558        0.57567
H          1.33356        2.00863        0.86637
C          0.65464        1.58751       -1.00622
C          0.18138        3.02764       -1.14752
N          0.77323        1.26597        0.43765
N          1.06136        3.89818       -0.36836
H         -0.16910        1.22655        0.86081
