34
2msa1a1eda_197.log	Energy: -988700.3919500
S          1.59979       -1.58961       -0.15618
O          2.79435       -0.90267        0.41293
O          1.30608       -1.23440       -1.54624
O          0.41665       -1.40803        0.75991
C          1.97819       -3.33130       -0.09831
H          2.85676       -3.50513       -0.71983
H          2.17430       -3.60632        0.93790
H          1.11721       -3.87429       -0.48894
S         -2.66159       -0.01010       -0.04584
O         -2.23189        0.75050       -1.21674
O         -2.53290        0.64424        1.25303
O         -1.98900       -1.42988       -0.01928
H         -0.99591       -1.40132        0.25043
C         -4.34884       -0.51233       -0.28681
H         -4.94418        0.40048       -0.32380
H         -4.41569       -1.05512       -1.22916
H         -4.64832       -1.13718        0.55388
N          0.33883        1.23505        2.32416
H          0.27467        1.35762        3.32954
H          0.33501        0.23126        2.13254
H         -0.52658        1.58502        1.91647
H          2.53805        3.60189       -0.30179
H          3.39493        2.27014       -1.11075
H          1.35231        2.68712       -2.33429
H          1.17146        1.14137       -1.51215
H         -0.15199        3.63501       -0.78772
H         -0.75804        2.10956       -0.86962
H          3.25966        2.09226        1.34611
H          1.59981        1.79974        1.29323
C          2.49750        2.53596       -0.54520
C          1.23726        2.22160       -1.34396
N          2.51559        1.77362        0.72945
N          0.05853        2.65915       -0.61212
H          2.67354        0.74701        0.55667
