37
2msa1ma1eda_363.log	Energy: -1013354.2432236
S         -3.28432       -0.60443        0.07112
O         -3.15842       -0.31382        1.51246
O         -2.23184       -1.48870       -0.47110
O         -3.41725        0.65038       -0.75647
H         -2.00999        1.17498       -1.20203
C         -4.84675       -1.44319       -0.14549
H         -4.81117       -2.37059        0.42696
H         -5.63721       -0.79163        0.22739
H         -4.98356       -1.65002       -1.20696
S          1.99181       -0.60342       -0.17295
O          1.46357        0.23569       -1.25329
O          2.40114        0.07604        1.06123
O          3.22148       -1.41604       -0.71541
H          4.11796       -1.10319       -0.22399
C          0.81264       -1.87826        0.16873
H         -0.14860       -1.40585        0.38827
H          0.71468       -2.48625       -0.73069
H          1.18261       -2.46880        1.00649
N          5.28290       -0.52973        0.51081
H          4.90199       -0.38836        1.44374
C          5.63396        0.76461       -0.09406
H          6.39810        1.30681        0.47191
H          5.99349        0.59779       -1.11122
H          4.73005        1.37482       -0.14452
H          6.09476       -1.13432        0.59001
H          0.28550        2.99453       -0.58235
H         -1.37809        3.58034       -0.84965
H         -0.86893        3.20883        1.59383
H         -2.23111        2.24709        1.00246
H          0.36200        1.19752        1.77615
H         -1.17339        0.52561        1.84085
H         -0.90633        1.79745       -2.35732
H         -0.33705        0.83822       -1.13994
C         -0.77451        2.74148       -0.49428
C         -1.14587        2.36775        0.94310
N         -1.02645        1.57017       -1.37351
N         -0.53100        1.10497        1.30876
