34
2msa1a1eda_85.log	Energy: -988704.0013029
S         -2.13829       -0.79775        0.34030
O         -3.51303       -0.34941        0.09173
O         -1.34795        0.08622        1.23696
O         -1.39790       -1.00886       -0.96748
C         -2.18845       -2.39023        1.12654
H         -2.69620       -2.27272        2.08408
H         -2.73905       -3.07015        0.47637
H         -1.15598       -2.71528        1.26348
S          1.93872       -1.31564       -0.09655
O          1.17634       -2.25302        0.71571
O          2.81255       -0.35363        0.57094
O          0.98497       -0.52640       -1.05805
H         -0.05584       -0.81344       -0.98376
C          2.93848       -2.24669       -1.23968
H          2.28553       -2.91135       -1.80505
H          3.45232       -1.54779       -1.89943
H          3.65528       -2.81877       -0.64970
N         -2.67285        1.99930       -1.74070
H         -2.50405        1.46201       -2.58672
H         -3.27350        2.77854       -1.98947
H         -3.20160        1.37766       -1.12255
H          0.22258        4.11243       -0.15121
H         -0.57277        3.43719        1.29385
H          1.90093        3.82711        1.66685
H          1.46321        2.12592        1.82423
H          3.18126        3.25851       -0.14239
H          2.88653        1.66121        0.19603
H         -1.08849        2.22801       -0.88289
H          0.55632        1.75598       -0.82534
C          0.17518        3.25079        0.51988
C          1.55575        2.95015        1.10826
N         -0.24668        2.07465       -0.26739
N          2.46254        2.56975        0.03110
H         -0.53002        1.28997        0.36410
