41
2msa1dma1tma_107.log	Energy: -1027939.7602126
S          2.09989       -0.51963       -1.07543
O          2.93022       -1.34073       -0.19498
O          2.66884        0.77001       -1.50062
O          0.72133       -0.29212       -0.44030
C          1.73973       -1.46072       -2.54880
H          1.08629       -0.86959       -3.19140
H          2.68837       -1.66035       -3.04793
H          1.25848       -2.39327       -2.25312
S         -2.58857        0.38645       -0.74300
O         -3.61638        1.06382       -1.50498
O         -1.93957        1.10143        0.36272
O         -1.46070       -0.07677       -1.75197
H         -0.57350       -0.16538       -1.26497
C         -3.22319       -1.14927       -0.11457
H         -4.00996       -0.89993        0.59899
H         -3.63525       -1.70402       -0.95788
H         -2.40612       -1.69934        0.37065
N         -0.48981       -2.28616        1.44314
C          0.10847       -3.54677        1.85320
C         -0.62807       -1.34617        2.54073
H          0.09023       -1.84922        0.73046
H         -0.56276       -4.06698        2.54583
H          0.25014       -4.18689        0.97863
H          1.08556       -3.42335        2.35005
H         -1.30930       -1.75239        3.29742
H          0.33046       -1.11796        3.04522
H         -1.06388       -0.41579        2.16320
N          0.91984        1.97526        1.12206
C          2.35411        1.86541        1.50455
H          2.46756        1.02914        2.19517
H          2.94071        1.67927        0.60483
H          2.65978        2.79820        1.98303
C          0.71744        2.97287        0.03535
H          1.31180        2.65458       -0.82274
H         -0.34266        2.98323       -0.21768
H          1.04254        3.95240        0.39292
C          0.06690        2.26063        2.30196
H         -0.97584        2.25118        1.99052
H          0.23714        1.48859        3.05294
H          0.34586        3.23708        2.70394
H          0.65074        1.05704        0.69701
