42
2msa2eda_464.log	Energy: -1072750.0054265
S          3.04539       -0.44118        0.71106
O          4.45433       -0.51902        1.09128
O          2.69401       -1.06595       -0.59137
O          2.49356        0.96795        0.75363
H          1.91402        1.22456       -0.67762
C          2.11571       -1.32188        1.96050
H          2.46227       -2.35655        1.96772
H          2.31575       -0.85177        2.92419
H          1.05760       -1.25864        1.70185
S         -0.94941       -1.28846       -0.98854
O         -0.69456       -0.59753        0.29686
O         -0.54965       -0.47815       -2.16480
O         -2.38944       -1.72335       -1.08629
H         -3.31587       -0.61311       -0.63747
C          0.02243       -2.77298       -1.00774
H          1.06759       -2.46201       -0.90768
H         -0.29051       -3.39526       -0.16875
H         -0.15545       -3.28058       -1.95593
H         -0.90658        1.85179       -0.69142
H         -0.94939        3.60047       -0.98563
H          0.26996        2.61984       -2.78544
H          1.46451        3.44650       -1.74482
H          0.84528        0.54477       -1.81238
H          2.25655        1.25436       -2.31592
H         -0.37000        3.31290        1.27194
H          0.91157        2.33253        0.92469
C         -0.29541        2.76866       -0.70251
C          0.74869        2.62358       -1.80307
N          0.32730        3.09037        0.57232
N          1.48862        1.34629       -1.65435
H         -5.16812        0.57518        1.42562
H         -4.85912       -1.15455        1.10863
H         -3.53882       -0.17234        3.09814
H         -2.54543       -0.94995        1.85404
H         -2.45181        1.77042        2.59410
H         -1.50359        0.92715        1.52405
H         -4.68200        0.40907       -0.87838
H         -3.32125        1.00979       -0.09275
C         -4.41270       -0.15901        1.13371
C         -3.19312       -0.09489        2.06306
N         -3.93220        0.18692       -0.22867
N         -2.45836        1.14173        1.80224
