25
2msa1ma_63.log	Energy: -893790.9504628
S         -1.99344       -0.82238       -0.05139
O         -2.46295       -2.17471       -0.24769
O         -1.07832       -0.26032       -1.06528
O         -1.30516       -0.66788        1.37190
H         -0.31364       -0.64455        1.29858
C         -3.35593        0.29067        0.13956
H         -3.96365        0.19457       -0.76119
H         -3.91983       -0.02351        1.01807
H         -2.94745        1.30231        0.23639
S          2.25647       -0.46261        0.01192
O          2.91321       -1.72116       -0.25635
O          1.32041       -0.39190        1.14540
O          1.51211        0.08001       -1.27994
H          0.53405       -0.11889       -1.23444
C          3.46932        0.81478        0.21976
H          4.07378        0.53851        1.08429
H          4.08102        0.84916       -0.68182
H          2.95380        1.75995        0.38678
N         -1.31726        2.80090       -0.44875
H         -1.13071        2.14733       -1.20333
C         -0.18009        2.85274        0.46740
H          0.76176        3.18189        0.00180
H         -0.40828        3.53431        1.29133
H         -0.01735        1.86135        0.89765
H         -1.48537        3.70965       -0.86601
