42
2msa2eda_437.log	Energy: -1072750.2060789
S          0.80427       -2.30700       -0.39150
O          2.24181       -1.96056       -0.35796
O          0.41862       -3.43702       -1.22714
O          0.04371       -1.02224       -0.78274
C          0.28436       -2.63096        1.28041
H          0.79668       -3.53694        1.60677
H          0.55404       -1.76793        1.89433
H         -0.79616       -2.77976        1.27785
S         -2.80154        0.32409        0.31866
O         -2.40474        1.67201       -0.09254
O         -2.34666       -0.13412        1.62627
O         -2.42858       -0.71527       -0.79754
H         -1.40617       -0.91120       -0.80775
C         -4.57255        0.21080        0.23469
H         -4.96812        0.91802        0.96426
H         -4.88839        0.47620       -0.77375
H         -4.86357       -0.80909        0.48396
H          2.35174        2.49335       -2.59199
H          1.49283        1.29207       -3.57960
H         -0.07082        3.06300       -2.83949
H         -0.51959        1.49386       -2.17870
H          0.57915        3.71232       -0.67647
H         -0.58229        2.60634       -0.28016
H          2.69611        0.02064       -2.04239
H          2.41154        0.98884       -0.72878
C          1.57717        1.72174       -2.57810
C          0.23398        2.28632       -2.12390
N          2.00296        0.65271       -1.64390
N          0.31289        2.73730       -0.74455
H          1.19310        0.04170       -1.37096
H          3.27874        0.65082        2.98886
H          3.66415        2.20031        2.21178
H          1.39517        2.10786        3.27636
H          1.37940        2.55775        1.55887
H         -0.22932        0.72265        2.44142
H          0.49963        0.49992        1.02277
H          4.27773        0.51398        0.73414
H          2.88047       -0.29334        0.87448
C          3.02637        1.31174        2.14792
C          1.56534        1.73334        2.26139
N          3.27843        0.64920        0.85824
N          0.68415        0.59578        2.01858
