32
2msa1a1dma_143.log	Energy: -953953.3568913
S          1.70547        0.93145        0.21118
O          1.10600        1.13671        1.53178
O          1.53313       -0.43438       -0.34852
O          3.18255        1.29908        0.17765
H          3.99139        0.14359        0.06503
C          0.93579        2.07081       -0.91946
H         -0.12852        1.82920       -0.96791
H          1.08906        3.07916       -0.53418
H          1.40320        1.95350       -1.89729
S         -2.76537       -0.12379       -0.20543
O         -2.22829        0.97935       -0.98519
O         -3.36796       -1.25275       -0.91904
O         -3.84170        0.44006        0.82097
H         -4.75820        0.03248        0.62306
C         -1.50954       -0.71960        0.89237
H         -0.68202       -1.07968        0.27688
H         -1.15336        0.11044        1.50435
H         -1.93741       -1.51639        1.50025
N         -6.10746       -0.75149        0.11629
H         -6.76004       -0.17429       -0.40364
H         -6.63125       -1.29677        0.79223
H         -5.64994       -1.38622       -0.53625
N          4.57509       -0.80978       -0.02507
C          4.36769       -1.34345       -1.38998
C          4.10618       -1.72186        1.04338
H          5.55729       -0.58267        0.11824
H          3.29167       -1.45847       -1.52981
H          4.75077       -0.62075       -2.11124
H          4.88248       -2.30003       -1.50475
H          3.03809       -1.88108        0.88834
H          4.65149       -2.66718        0.99826
H          4.25975       -1.23853        2.00866
