37
2msa1ma1eda_319.log	Energy: -1013358.0424295
S         -0.98760       -1.90352       -0.38116
O         -0.95420       -1.48581       -1.78816
O         -1.94471       -1.13038        0.45526
O          0.37770       -1.91328        0.25850
C         -1.52963       -3.59989       -0.31879
H         -0.83191       -4.19837       -0.90466
H         -1.53731       -3.92076        0.72275
H         -2.53079       -3.64776       -0.74764
S          2.67843        0.58005       -0.21612
O          3.02890        0.60325        1.19633
O          1.57999        1.46151       -0.64033
O          2.43091       -0.87655       -0.72783
H          1.55746       -1.30183       -0.35536
C          4.10852        0.98514       -1.18783
H          4.37868        2.01172       -0.93914
H          4.90875        0.29723       -0.91645
H          3.84928        0.89351       -2.24193
N          0.14830        0.38888        2.42874
H          0.33342       -0.49030        1.94961
C         -0.76432        0.15898        3.54569
H         -0.38661       -0.53898        4.30768
H         -0.98910        1.10888        4.04162
H         -1.70218       -0.24779        3.15543
H          1.04992        0.73131        2.74491
H         -1.27614        2.59933       -1.69794
H         -1.44877        0.83278       -1.87691
H         -3.67571        1.96135       -2.10891
H         -3.61470        0.89257       -0.70238
H         -3.50249        3.81856       -0.63049
H         -4.44553        2.80465        0.23946
H         -0.09724        1.52032        0.06057
H         -1.48439        2.20303        0.72538
C         -1.71859        1.69733       -1.26617
C         -3.22763        1.82917       -1.11557
N         -1.12949        1.49746        0.07688
N         -3.52836        2.91202       -0.17597
H         -1.40008        0.56295        0.44932
