40
2msa1dma1eda_276.log	Energy: -1038020.6325317
S         -0.31917        2.16138       -0.32092
O          1.04817        2.25719        0.22038
O         -1.34359        1.83542        0.71445
O         -0.40775        1.23235       -1.48701
C         -0.76596        3.77609       -0.93173
H         -0.03926        4.06462       -1.69128
H         -1.76798        3.71655       -1.35665
H         -0.74389        4.47146       -0.09252
S         -2.41819       -1.50964       -0.03824
O         -3.29477       -2.60432        0.32394
O         -0.97297       -1.74182       -0.05475
O         -2.75373       -0.31325        0.93677
H         -2.14835        0.48934        0.81517
C         -2.88647       -0.87303       -1.63332
H         -2.71825       -1.66955       -2.35958
H         -3.94327       -0.60929       -1.59253
H         -2.25464       -0.00769       -1.84846
N          1.71790       -0.65307        2.09063
C          0.40385       -0.42834        2.70599
C          2.66713        0.41309        2.41896
H          2.08228       -1.54116        2.42412
H         -0.02488        0.49174        2.30172
H         -0.26197       -1.25366        2.44931
H          0.47067       -0.33434        3.79970
H          2.29623        1.34723        1.98941
H          2.79760        0.54503        3.50327
H          3.64402        0.19064        1.97715
H          2.57472        0.06256       -2.30041
H          2.87694        0.81728       -0.72944
H          4.78679       -0.66858       -1.37310
H          3.97336       -1.29144        0.06486
H          3.66986       -2.36897       -2.64134
H          4.08049       -3.15863       -1.26922
H          0.64001       -0.14226       -1.00922
H          1.33786       -1.66845       -1.02716
C          2.71267       -0.13687       -1.23362
C          3.85336       -1.12056       -1.01033
N          1.45713       -0.70561       -0.70612
N          3.52214       -2.39856       -1.63801
H          1.47877       -0.71629        0.36137
