25
2msa1ma_07.log	Energy: -893811.1167409
S         -2.03815       -0.50927       -0.02971
O         -2.28953        0.47563       -1.10872
O         -1.56656        0.13787        1.22085
O         -1.12997       -1.62065       -0.45946
C         -3.58855       -1.30605        0.32606
H         -4.29555       -0.54144        0.64787
H         -3.93368       -1.79336       -0.58570
H         -3.41997       -2.03722        1.11657
S          2.10860       -0.38915        0.05577
O          2.07236        0.26192        1.35757
O          1.70980        0.46359       -1.08133
O          1.30741       -1.72266        0.03520
H          0.27761       -1.62324       -0.15093
C          3.73963       -1.01601       -0.25312
H          4.41919       -0.16355       -0.24090
H          3.98781       -1.71850        0.54217
H          3.74330       -1.50584       -1.22612
N         -0.30552        2.15990       -0.15667
H          0.51984        1.67182       -0.55847
H         -1.09653        1.95631       -0.79089
C         -0.06027        3.59068        0.09921
H         -0.95519        4.03883        0.53012
H          0.77120        3.68575        0.79696
H          0.18653        4.08853       -0.83817
H         -0.56599        1.61991        0.69150
