26
2msa2a_28.log	Energy: -904647.3406001
S          2.19715        0.00624       -0.03124
O          2.27308        1.00961       -1.11239
O          1.56825       -1.28127       -0.45705
O          1.54635        0.54696        1.19855
C          3.86565       -0.42993        0.41132
H          4.35154       -0.83711       -0.47532
H          4.37134        0.47441        0.74976
H          3.82606       -1.17388        1.20674
S         -1.87352       -1.12750       -0.08139
O         -3.14189       -1.80306       -0.24128
O         -1.87096        0.33929       -0.25697
O         -0.84565       -1.77358       -1.07329
H          0.12425       -1.51239       -0.87336
C         -1.18846       -1.46024        1.52709
H         -1.90145       -1.07632        2.25792
H         -1.07849       -2.53987        1.62889
H         -0.22521       -0.94983        1.61167
N         -0.00897        2.33711       -0.22168
H         -0.69747        3.09447       -0.04598
H         -0.57658        1.51009       -0.48212
H          0.68654        2.51235       -0.94836
H          0.51944        2.02884        0.61163
N         -2.56955        3.51215        0.19208
H         -2.87355        3.88811        1.08453
H         -2.92374        2.55850        0.12519
H         -3.02777        4.05536       -0.53289
