40
2msa1dma1eda_09.log	Energy: -1038037.1097569
S          2.81370        0.75257        0.12444
O          2.14541        2.02919       -0.25321
O          3.32885       -0.03314       -1.00804
O          1.91711       -0.05255        1.01629
C          4.21703        1.21238        1.12705
H          4.72721        0.30092        1.43901
H          4.87542        1.83160        0.51733
H          3.85681        1.76817        1.99279
S         -2.30393       -1.27017        0.31206
O         -1.54574       -2.51558        0.61531
O         -2.14728       -0.82625       -1.09103
O         -2.02666       -0.17403        1.28311
C         -4.02142       -1.69686        0.54295
H         -4.15774       -2.02055        1.57475
H         -4.62286       -0.81167        0.33388
H         -4.26809       -2.50036       -0.15113
N          1.02087       -2.26366       -0.28600
C          0.88238       -2.02059       -1.74110
C          2.04286       -3.26979        0.05750
H          1.29750       -1.37008        0.19042
H          0.70835       -2.97440       -2.24278
H          0.01763       -1.37308       -1.89369
H          1.79571       -1.54537       -2.10127
H          1.78066       -4.22722       -0.39597
H          3.00706       -2.92435       -0.31940
H          2.08636       -3.37187        1.14194
H          0.08293       -2.50972        0.10475
H         -0.51887        2.90564       -1.47971
H         -1.12559        1.22392       -1.48246
H         -3.01749        2.83329       -1.74695
H         -3.13437        1.87964       -0.26280
H         -2.33115        4.69390       -0.41973
H         -3.45024        3.99777        0.55084
H          0.50894        1.91372        0.30624
H         -0.80075        2.76201        0.97158
C         -1.13591        2.17529       -0.94978
C         -2.56411        2.66855       -0.76136
N         -0.52995        1.96370        0.38786
N         -2.55494        3.85256        0.10093
H         -0.92415        1.09654        0.81795
