35
2msa1ma1dma_286.log	Energy: -978614.8962227
S          2.79277       -0.89230       -0.33861
O          3.20188        0.52594       -0.37366
O          1.91600       -1.33191       -1.41369
O          2.19867       -1.23563        1.06057
H          1.34563       -0.63171        1.28039
C          4.26386       -1.88340       -0.31510
H          4.76570       -1.72737       -1.27032
H          4.89030       -1.55667        0.51411
H          3.96807       -2.92582       -0.19991
S         -1.07263        0.21526        0.89459
O         -2.14383        0.36890        1.87007
O          0.30946        0.25772        1.53625
O         -1.08897        1.22215       -0.21508
H          0.30112        2.01873       -0.19944
C         -1.21402       -1.38327        0.13181
H         -1.13760       -2.13289        0.92101
H         -2.19660       -1.43294       -0.35464
H         -0.40665       -1.49602       -0.59447
N          1.24084        2.47350        0.01084
H          1.25504        2.56644        1.02660
C          1.42645        3.75908       -0.68939
H          2.39873        4.18339       -0.43866
H          1.37256        3.57969       -1.76262
H          0.63287        4.44667       -0.39766
H          1.98003        1.78112       -0.22159
N         -4.31560       -1.06932       -1.04602
C         -4.14232        0.20708       -1.72713
C         -4.97245       -0.92885        0.24780
H         -4.84797       -1.70076       -1.63426
H         -3.46676        0.83959       -1.14299
H         -3.67991        0.04273       -2.70458
H         -5.08945        0.75574       -1.87240
H         -4.33103       -0.34380        0.91433
H         -5.95449       -0.42819        0.18609
H         -5.11317       -1.91578        0.69788
