38
2msa2dma_118.log	Energy: -1003279.7912237
S         -0.92680        1.38411       -0.48732
O         -2.12457        2.12078       -0.09358
O         -0.39950        0.49967        0.63189
O          0.19770        2.23655       -0.97783
H          1.54992        1.87531       -0.17913
C         -1.35242        0.27687       -1.81384
H         -2.16103       -0.36327       -1.44696
H         -1.69081        0.89083       -2.64945
H         -0.46401       -0.29532       -2.08821
S          1.71092       -1.87716       -0.15200
O          2.63773       -1.10516        0.69774
O          1.69058       -1.50536       -1.56104
O          0.27996       -1.85572        0.46406
H         -0.07994       -0.85708        0.52107
C          2.10416       -3.59769        0.01960
H          3.10519       -3.73722       -0.38925
H          2.07365       -3.85479        1.07779
H          1.37165       -4.17051       -0.54848
N         -3.88763       -0.43052        0.24533
C         -3.47364       -1.01845        1.50801
C         -5.28746       -0.66326       -0.05759
H         -3.68795        0.56651        0.25713
H         -3.51420       -2.11168        1.43505
H         -2.44231       -0.72721        1.72079
H         -4.10592       -0.71427        2.36179
H         -5.45808       -1.73588       -0.20639
H         -5.97590       -0.32312        0.73716
H         -5.55491       -0.15015       -0.98574
N          2.39584        1.68663        0.43055
C          2.12748        2.27481        1.76019
C          3.60698        2.19747       -0.23961
H          2.46573        0.65687        0.52864
H          1.99925        3.35257        1.65092
H          1.20614        1.83199        2.13900
H          2.96038        2.05758        2.43108
H          3.50152        3.27194       -0.39565
H          4.48287        1.99264        0.37834
H          3.70944        1.69588       -1.20194
