42
2msa2eda_226.log	Energy: -1072756.2578869
S         -2.86545        0.29331        0.39037
O         -2.35134        1.38657       -0.45215
O         -2.49383        0.34381        1.80124
O         -2.52180       -1.07933       -0.24586
C         -4.63695        0.27803        0.26877
H         -4.90912        0.21812       -0.78437
H         -5.00600       -0.58625        0.82058
H         -4.99840        1.20445        0.71555
S          0.81776       -2.06446       -0.87791
O          0.61077       -2.65846        0.45047
O          2.12426       -1.42129       -1.09392
O         -0.29764       -1.09868       -1.24575
H         -1.52255       -1.12774       -0.65606
C          0.67970       -3.38305       -2.07229
H         -0.29909       -3.84896       -1.95571
H          0.79276       -2.95637       -3.06891
H          1.47311       -4.10235       -1.86744
H          2.37503        1.58899       -0.95581
H          1.08948        0.84036       -1.91566
H          1.84662        2.99516       -2.96348
H          0.16134        3.10839       -2.44445
H          2.44575        4.25199       -1.00586
H          1.10090        5.01446       -1.54615
H          0.66280        0.96650        0.60571
H          0.59710        2.65122        0.32124
C          1.35235        1.71230       -1.31838
C          1.19127        3.01969       -2.08207
N          0.47628        1.73794       -0.12636
N          1.45144        4.13969       -1.17549
H         -0.51979        1.64608       -0.38307
H          2.99460       -1.30366        2.40815
H          3.73836        0.12115        3.14184
H          1.43819       -0.18994        3.91276
H          1.64734        1.35360        3.06370
H          0.58469       -1.04524        1.71284
H         -0.36018        0.13027        2.33836
H          4.29746        0.36687        0.96610
H          2.90881       -0.22971        0.37605
C          2.98077       -0.20249        2.42024
C          1.62185        0.26529        2.92860
N          3.29314        0.36956        1.10817
N          0.56863       -0.05412        1.96275
