32
2msa1a1dma_27.log	Energy: -953970.3586580
S          1.86384       -1.23533       -0.05902
O          0.58891       -0.79420       -0.76516
O          1.95492       -0.62275        1.27886
O          3.03275       -1.01827       -0.92301
H          3.66284        0.99489       -0.52855
C          1.66823       -2.99426        0.16271
H          0.78447       -3.16816        0.77780
H          1.55651       -3.45226       -0.82016
H          2.56266       -3.36738        0.66198
S         -2.62739       -0.16353        0.08291
O         -2.09104        0.91568       -0.75052
O         -2.84678        0.12612        1.49071
O         -1.73165       -1.44388       -0.09136
H         -0.75929       -1.19486       -0.35399
C         -4.15085       -0.74615       -0.62367
H         -4.88258        0.05517       -0.51650
H         -3.97852       -0.98011       -1.67360
H         -4.46660       -1.62966       -0.06903
N          3.46658        1.77811        0.09793
H          3.55787        1.38827        1.03331
H          1.72817        1.98161       -0.08115
H          4.18015        2.48773       -0.02765
N          0.66783        1.98073       -0.11251
C          0.19051        3.04273       -1.01856
C          0.16866        2.09323        1.27728
H          0.40548        1.05041       -0.48568
H          0.50301        4.01209       -0.62547
H          0.63018        2.88622       -2.00415
H         -0.89563        2.98662       -1.08569
H          0.55636        3.01575        1.71430
H         -0.92108        2.10089        1.27121
H          0.53573        1.22765        1.83008
