35
2msa1ma1dma_49.log	Energy: -978629.0392507
S          2.51804        0.40624       -0.12847
O          3.62126        1.23712       -0.56042
O          1.65084        0.06667       -1.39907
O          1.63831        0.92665        0.93105
H         -0.07643        0.95769        1.30807
C          3.11813       -1.17717        0.40734
H          3.75237       -1.57642       -0.38420
H          3.69447       -1.00898        1.31785
H          2.25621       -1.82461        0.59051
S         -0.97842       -1.96210        0.00118
O         -1.84820       -1.57383        1.14152
O          0.24035       -2.69322        0.36472
O         -0.68581       -0.74948       -0.85032
H          0.73472       -0.32416       -1.16050
C         -1.96330       -3.03357       -1.02870
H         -2.21600       -3.91842       -0.44381
H         -2.86503       -2.49722       -1.32435
H         -1.36907       -3.30670       -1.90101
N         -1.07536        1.05141        1.56216
H         -1.52289        1.64580        0.80693
C         -1.23023        1.64702        2.90082
H         -2.29085        1.76835        3.12343
H         -0.77595        0.99281        3.64494
H         -0.73699        2.61921        2.92483
H         -1.47912        0.09281        1.50365
N         -2.06362        2.56381       -0.59126
C         -2.96564        1.69247       -1.34989
C         -0.81558        2.83254       -1.31303
H         -2.53140        3.44375       -0.39616
H         -2.48397        0.71789       -1.46941
H         -3.89788        1.55601       -0.79538
H         -3.20090        2.09639       -2.34539
H         -0.28984        1.88896       -1.47665
H         -0.98520        3.30590       -2.29040
H         -0.17158        3.47917       -0.71173
