42
2msa2eda_607.log	Energy: -1072733.2735516
S         -3.05325       -0.40392        0.44140
O         -3.42366        0.33792       -0.75873
O         -2.97498       -1.84795        0.41404
O         -4.15778       -0.00137        1.57381
H         -4.81116        0.57201        1.14918
C         -1.57981        0.26914        1.15289
H         -0.76865        0.00380        0.46798
H         -1.70070        1.35050        1.22182
H         -1.42955       -0.20100        2.12422
S          0.89878       -2.03093       -0.68429
O          2.19744       -2.39113       -1.28222
O          0.30961       -0.77660       -1.20021
O          0.98977       -1.99461        0.82861
H          2.28075       -1.40199        1.30716
C         -0.25744       -3.33855       -1.03330
H         -1.20972       -3.08609       -0.56478
H         -0.36459       -3.40332       -2.11653
H          0.14793       -4.26654       -0.62975
H          0.48241        4.62324       -1.33946
H          1.78814        3.43399       -1.24209
H         -0.06945        2.56634       -2.58292
H          0.13265        1.58823       -1.13607
H         -1.95151        3.60746       -1.52552
H         -2.13400        2.01525       -1.20412
H          1.02116        4.51074        0.92935
H         -0.28266        3.53222        0.80199
C          0.76077        3.64302       -0.91959
C         -0.17222        2.57848       -1.48824
N          0.69886        3.62798        0.54603
N         -1.54050        2.82253       -1.02959
H          4.95024       -0.14391        0.70927
H          3.88525       -1.10376       -0.37605
H          3.72168        1.41265       -0.76872
H          2.18941        0.63934       -0.36663
H          3.76323        2.35010        1.39510
H          2.13369        2.32420        1.13737
H          3.77667       -1.58441        2.13448
H          2.97896       -0.09601        2.19222
C          3.91658       -0.36242        0.42441
C          3.16877        0.91521        0.03809
N          3.21277       -0.91975        1.61253
N          2.97148        1.73712        1.23113
