30
2msa1eda_132.log	Energy: -953191.0011595
S          1.20640       -1.65227        0.07555
O          0.51923       -0.39849        0.49078
O          0.85311       -2.83237        0.86318
O          2.69266       -1.38922       -0.00945
H          2.94112        0.02099        0.47428
C          0.70786       -1.97206       -1.60991
H          1.20993       -2.88029       -1.94425
H         -0.37569       -2.09107       -1.62456
H          0.99631       -1.12169       -2.22892
S         -2.56059        0.33391       -0.05396
O         -1.96891        1.63267        0.20581
O         -2.24810       -0.39432       -1.27372
O         -4.17692        0.56368       -0.06720
H         -4.51790        0.18472       -0.88955
C         -2.39361       -0.69938        1.37627
H         -1.31962       -0.84994        1.50921
H         -2.83954       -0.17306        2.22019
H         -2.90446       -1.64124        1.17834
H          3.61194        2.87689       -0.15266
H          3.62182        1.45953       -1.23368
H          1.60689        3.00450       -1.57304
H          1.16303        1.33953       -1.16488
H          0.79617        3.65166        0.49553
H          0.00035        2.21028        0.47752
H          3.91689        1.14048        1.33363
H          2.24753        1.35170        1.31257
C          3.08891        1.95429       -0.41924
C          1.62626        2.24989       -0.77844
N          3.07844        1.05975        0.76544
N          0.91689        2.64865        0.43134
