34
2msa1a1eda_147.log	Energy: -988703.3500924
S          2.34723        0.64873       -0.09474
O          2.24463       -0.64583       -0.77286
O          1.98533        0.66551        1.32031
O          1.55411        1.74549       -0.88706
H          0.53666        1.51626       -0.90328
C          3.99294        1.28514       -0.29351
H          4.66448        0.59278        0.21490
H          4.21664        1.33409       -1.35866
H          4.03704        2.27216        0.16572
S         -1.93736        1.48201        0.07760
O         -2.82703        2.43981       -0.56551
O         -0.82135        1.00644       -0.86113
O         -2.57534        0.29075        0.67922
H         -3.53011       -1.21528       -0.27847
C         -1.06743        2.32169        1.39164
H         -0.58818        3.20662        0.97105
H         -1.80487        2.61034        2.14103
H         -0.31977        1.64575        1.80967
N         -3.48969       -2.10669       -0.78164
H         -1.66280       -2.09462       -0.82942
H         -3.95503       -1.97646       -1.67435
H         -4.02740       -2.78931       -0.25794
H          0.38537       -1.21534        1.08112
H         -1.22998       -1.86349        1.39058
H          0.68052       -3.46843        1.94233
H         -0.48115       -4.14057        0.78824
H          2.04363       -2.87217       -0.04360
H          1.67277       -4.48031       -0.13861
H         -0.70448       -0.71824       -0.82993
H          0.01077       -2.20962       -1.21581
C         -0.33114       -1.98379        0.78529
C          0.28839       -3.37114        0.92028
N         -0.69373       -1.74174       -0.63395
N          1.28604       -3.54513       -0.13104
