44
2msa2tma_53.log	Energy: -1052598.1487750
S         -3.07948       -0.91663       -0.35622
O         -2.61663       -2.30379       -0.54074
O         -3.34065       -0.13359       -1.55825
O         -2.09931       -0.20372        0.58916
C         -4.59600       -0.98745        0.58414
H         -4.92741        0.03344        0.77502
H         -5.33143       -1.52093       -0.01896
H         -4.40666       -1.51641        1.51808
S         -0.04297        2.49924        0.12165
O          0.40365        1.83186       -1.09818
O          0.71905        2.21115        1.33612
O         -1.57465        2.26085        0.36268
H         -1.81615        1.25853        0.41058
C         -0.07192        4.25460       -0.14459
H          0.96035        4.56520       -0.30805
H         -0.68312        4.45808       -1.02324
H         -0.48388        4.73106        0.74440
N          3.96952       -0.82988       -0.24648
C          3.61851        0.57460       -0.40610
H          2.83466        0.68719       -1.15955
H          3.22727        0.97632        0.53298
H          4.48721        1.18809       -0.71092
C          4.96101       -1.00515        0.80082
H          4.57780       -0.60177        1.74375
H          5.17180       -2.06985        0.94221
H          5.91432       -0.49137        0.57402
C          4.42772       -1.39985       -1.50184
H          4.63464       -2.46697       -1.37349
H          3.65157       -1.28882       -2.26571
H          5.34674       -0.91283       -1.87917
N          0.19146       -1.69856        0.56669
C          1.12468       -1.06479        1.53363
H          1.10072        0.01680        1.39262
H          0.79412       -1.30583        2.54491
H          2.13155       -1.44096        1.34132
C          0.01161       -3.14501        0.83330
H         -0.33884       -3.27479        1.85797
H         -0.73867       -3.52732        0.14244
H          0.97264       -3.64684        0.70021
C          0.60365       -1.45557       -0.84356
H         -0.14093       -1.91565       -1.49374
H          0.62882       -0.37863       -1.01631
H          1.59542       -1.88675       -0.99062
H         -0.73719       -1.22197        0.66973
