35
2msa1ma1dma_120.log	Energy: -978623.5058911
S         -2.08011       -0.82060       -0.41545
O         -2.64624        0.03561        0.66786
O         -1.43611       -2.05249        0.04582
O         -1.19531        0.01685       -1.30250
H          0.27217       -0.24712       -1.49444
C         -3.46317       -1.29031       -1.43672
H         -4.15037       -1.86887       -0.81909
H         -3.94307       -0.38594       -1.81011
H         -3.08251       -1.89616       -2.25921
S          2.19792        0.45039       -0.70466
O          2.78976        1.59090       -1.38207
O          1.27448       -0.35491       -1.68500
O          1.45039        0.74207        0.53728
H         -0.00158        1.57200        0.75337
C          3.42871       -0.76105       -0.32654
H          3.90737       -1.04788       -1.26327
H          4.14682       -0.28491        0.34244
H          2.91386       -1.60663        0.15325
N          1.34575       -2.75671        1.16389
H          0.50757       -2.56667        0.61651
C          1.20540       -2.13255        2.47892
H          0.30582       -2.43996        3.03157
H          2.08222       -2.36397        3.09269
H          1.17023       -1.04745        2.34678
H          1.40462       -3.76517        1.25865
N         -0.89609        2.07772        0.92814
C         -1.10425        3.04133       -0.17350
C         -0.86445        2.67801        2.27514
H         -1.63793        1.33207        0.87997
H         -0.28080        3.75700       -0.18871
H         -1.13215        2.47748       -1.10597
H         -2.05231        3.55999       -0.02202
H         -0.05167        3.40381        2.33033
H         -1.81767        3.17088        2.47261
H         -0.70251        1.88698        3.00737
