37
2msa1ma1eda_402.log	Energy: -1013352.9987594
S          1.69517        1.73530       -0.14541
O          2.42322        2.98608       -0.00832
O          0.27572        1.81678        0.39415
O          2.35556        0.54959        0.48844
H          1.34173       -0.07704        1.65096
C          1.53315        1.36385       -1.88207
H          1.03691        2.21349       -2.35293
H          2.54195        1.25201       -2.28155
H          0.95526        0.44729       -2.03360
S         -2.61286        0.05446       -0.00291
O         -1.97051       -0.29761        1.27581
O         -2.98604       -1.03687       -0.88660
O         -1.72615        1.06793       -0.77643
H         -0.84111        1.39483       -0.26391
C         -4.06905        0.99875        0.38051
H         -4.75340        0.34106        0.91696
H         -3.77639        1.84718        0.99892
H         -4.51049        1.33306       -0.55825
N          0.58977       -0.37133        2.32813
H          0.52192        0.36583        3.02766
C          0.84559       -1.70352        2.92473
H         -0.04335       -2.03463        3.46156
H          1.09775       -2.38865        2.11230
H          1.69304       -1.63373        3.60707
H         -0.30924       -0.35351        1.80947
H          2.31732       -1.76526       -1.87577
H          1.86789       -3.44411       -1.56501
H         -0.15132       -2.75416       -0.38356
H          0.36827       -1.06773       -0.40420
H         -0.17766       -2.55400       -2.87001
H         -1.19640       -1.48948       -2.16779
H          3.33985       -3.04382        0.12096
H          2.85871       -1.49731        0.34192
C          1.84019       -2.43223       -1.14289
C          0.38638       -2.00082       -0.98050
N          2.52616       -2.44013        0.15139
N         -0.21451       -1.72724       -2.28139
