35
2msa1ma1dma_296.log	Energy: -978613.8949937
S          2.03490        1.41066        0.29413
O          3.05186        2.33663        0.78483
O          1.75909        0.23819        1.16515
O          2.28544        0.94093       -1.12271
H          2.43035       -0.53806       -1.17405
C          0.49819        2.32145        0.18273
H          0.25554        2.69337        1.17947
H          0.64635        3.15306       -0.50707
H         -0.26914        1.63783       -0.18314
S         -2.07240       -1.18112        0.48076
O         -1.54270       -2.53311        0.42190
O         -3.51966       -0.97547        0.51089
O         -1.48550       -0.37244       -0.74742
H         -2.21462        0.28478       -1.14141
C         -1.34333       -0.35330        1.87543
H         -1.60938       -0.92693        2.76433
H         -0.25842       -0.30792        1.73756
H         -1.76257        0.65205        1.93446
N         -3.31526        1.23494       -1.58062
H         -3.17966        1.64526       -2.49946
C         -3.48298        2.27283       -0.55211
H         -4.30177        2.96590       -0.76986
H         -3.68349        1.77812        0.40047
H         -2.55349        2.84009       -0.46244
H         -4.14177        0.64388       -1.62120
N          2.58218       -1.62067       -1.15724
C          1.31472       -2.27445       -0.74868
C          3.71316       -1.89572       -0.24078
H          2.82644       -1.89938       -2.10589
H          1.08984       -1.94883        0.26459
H          0.51226       -1.94490       -1.40691
H          1.42342       -3.35970       -0.78664
H          3.44969       -1.47716        0.73165
H          3.88101       -2.97214       -0.16837
H          4.60425       -1.39464       -0.61986
