31
2msa1tma_08.log	Energy: -943131.5874366
S          1.40449        1.54072        0.02178
O          2.82184        1.77157        0.29253
O          0.63150        1.22101        1.27751
O          1.13863        0.48847       -1.00938
H          1.16297       -0.98420       -0.46088
C          0.68085        3.02648       -0.63631
H          0.79136        3.81279        0.11076
H          1.21612        3.28287       -1.55076
H         -0.36950        2.81731       -0.84686
S         -2.27910       -0.05624       -0.13031
O         -1.74926       -1.33894       -0.59905
O         -2.18752        1.09269       -1.01844
O         -1.67310        0.27986        1.27990
H         -0.71730        0.70605        1.22620
C         -3.97792       -0.30312        0.33408
H         -4.51474       -0.57873       -0.57421
H         -4.02590       -1.10530        1.06983
H         -4.36365        0.63001        0.74338
N          1.44184       -1.93934       -0.07470
C          0.98740       -2.96610       -1.04051
H         -0.09268       -2.87139       -1.15034
H          1.47086       -2.78138       -2.00033
H          1.25867       -3.95712       -0.66805
C          2.91940       -1.87510        0.03821
H          3.34001       -1.69536       -0.95111
H          3.18484       -1.03904        0.68708
H          3.29404       -2.81614        0.44785
C          0.80112       -2.10157        1.25461
H          1.05446       -1.23447        1.86636
H         -0.27785       -2.14029        1.11093
H          1.16765       -3.02264        1.71456
