37
2msa1ma1eda_518.log	Energy: -1013349.8058280
S          2.18408       -1.74797        0.12549
O          2.59694       -2.90108        0.92141
O          3.16831       -1.22478       -0.84667
O          1.66865       -0.59873        0.98023
H          2.41626        0.66857        0.61598
C          0.74851       -2.25243       -0.81992
H          1.07017       -3.00921       -1.53635
H          0.01991       -2.67519       -0.12624
H          0.32725       -1.38062       -1.32118
S         -1.85636        0.74188        0.65273
O         -1.36582        2.05077        1.06296
O         -1.50257        0.26267       -0.68761
O         -3.42426        0.72872        0.78151
H         -3.85113        0.18253       -0.01798
C         -1.33506       -0.45559        1.85289
H         -0.24621       -0.54511        1.76809
H         -1.63815       -0.09739        2.83685
H         -1.81930       -1.40530        1.62125
N         -4.34281       -0.63597       -1.20420
H         -5.34442       -0.57818       -1.36193
C         -3.90616       -2.03391       -1.06345
H         -4.17046       -2.65456       -1.92576
H         -2.82091       -2.04201       -0.94270
H         -4.36134       -2.46218       -0.16769
H         -3.87966       -0.20496       -2.00023
H          3.39764        2.62213       -1.45189
H          2.86971        0.92483       -1.68460
H          1.05171        2.65211       -2.24900
H          0.57986        1.49586       -1.00846
H          1.07197        4.31093       -0.62583
H          0.12833        3.25997        0.23044
H          3.94601        1.38772        0.49383
H          2.60743        2.36570        0.83315
C          2.69773        1.84649       -1.12687
C          1.25208        2.33280       -1.21964
N          2.96105        1.55596        0.30581
N          1.02879        3.38242       -0.22504
