32
2msa2ma_208.log	Energy: -953957.0746904
S          1.20360       -1.12841       -0.06671
O         -0.00459       -1.91697       -0.47687
O          0.99365       -0.37364        1.17672
O          1.67685       -0.25167       -1.18963
H          0.82021        1.13830       -1.17031
C          2.49521       -2.32051        0.18908
H          2.19251       -2.96620        1.01355
H          2.61212       -2.89392       -0.73062
H          3.40854       -1.76680        0.42274
S         -2.77828        0.09353        0.13985
O         -2.29628        0.64356       -1.14458
O         -2.49758        0.90495        1.31331
O         -2.29962       -1.37669        0.30170
H         -1.30768       -1.55893       -0.00454
C         -4.52876       -0.16516        0.00326
H         -4.72126       -0.78319       -0.87287
H         -4.86903       -0.65633        0.91466
H         -4.99093        0.81680       -0.10042
N          0.13985        1.94497       -1.06239
H          0.27110        2.59821       -1.83102
C          0.29787        2.59812        0.26273
H         -0.47410        3.35718        0.38572
H          0.19348        1.82588        1.02455
H          1.29114        3.04285        0.32372
H         -0.80931        1.52032       -1.14640
N          4.49227        0.41852       -0.14653
H          5.36167        0.69859       -0.58574
C          4.02287        1.43199        0.79322
H          3.85594        2.42785        0.34778
H          3.08347        1.09293        1.23931
H          4.75091        1.54801        1.60153
H          3.79857        0.26898       -0.87434
