30
2msa1eda_79.log	Energy: -953202.0081588
S         -2.39544       -0.09396       -0.01504
O         -1.74503       -0.03613       -1.32254
O         -2.54436        1.17230        0.70160
O         -1.70428       -1.16701        0.89595
H         -0.67348       -1.01128        0.94640
C         -3.99845       -0.83900       -0.18379
H         -3.87940       -1.80604       -0.67112
H         -4.43442       -0.94818        0.80885
H         -4.59742       -0.16598       -0.79783
S          1.73227       -1.52610        0.09842
O          0.74555       -0.71846        0.91010
O          2.33984       -2.63305        0.82268
O          2.70823       -0.56107       -0.50936
H          2.55445        0.81952        0.15654
C          0.80493       -2.19858       -1.26841
H          0.10183       -2.93076       -0.86899
H          0.26624       -1.38865       -1.76156
H          1.51340       -2.68074       -1.94233
H          2.31338        3.72229       -0.43723
H          2.46137        2.34026       -1.55399
H          0.09268        3.27706       -1.45343
H          0.17574        1.58337       -0.96713
H         -0.21271        3.85134        0.81208
H         -0.92076        2.36687        0.82168
H          3.32634        2.13726        0.90389
H          1.68987        1.88887        1.19860
C          1.99573        2.69441       -0.63281
C          0.46852        2.59754       -0.67908
N          2.44736        1.83510        0.49274
N         -0.04599        2.86304        0.65992
