32
2msa2ma_40.log	Energy: -953968.9326741
S         -2.49301       -0.30636       -0.07218
O         -3.87324       -0.36576       -0.50051
O         -2.06542        0.90073        0.65134
O         -1.58557       -0.50698       -1.34524
C         -2.09567       -1.70760        0.95121
H         -1.04221       -1.64020        1.23425
H         -2.74144       -1.64504        1.82801
H         -2.30275       -2.61483        0.38366
S          1.75657       -1.19669        0.01341
O          1.17061       -0.81839        1.33360
O          2.69547       -0.18957       -0.50923
O          0.68550       -1.57606       -0.95921
H         -0.65652       -0.88394       -1.14829
C          2.68105       -2.69460        0.28452
H          1.99860       -3.45421        0.66552
H          3.10995       -3.00315       -0.66883
H          3.46528       -2.47812        1.00993
N          0.47550        1.86784        1.22707
H          0.92186        2.21784        0.31939
H         -0.51917        1.66508        1.03125
C          0.65069        2.81769        2.33893
H          0.19683        2.41369        3.24410
H          1.71542        2.98060        2.50816
H          0.17352        3.76498        2.08649
H          0.88898        0.93446        1.42407
N          1.59762        2.45870       -1.23787
H          2.17971        3.26278       -1.44770
C          0.54647        2.29988       -2.25304
H          0.94127        2.16561       -3.26662
H         -0.06262        1.42658       -2.00808
H         -0.10881        3.17488       -2.24469
H          2.19915        1.63192       -1.23040
