30
2msa1eda_151.log	Energy: -953183.1801199
S         -3.21949       -0.59796       -0.13308
O         -3.11723       -1.58701       -1.18346
O         -2.95538        0.80784       -0.47674
O         -2.31722       -0.98751        1.11220
H         -1.41269       -0.56578        1.03812
C         -4.81877       -0.69387        0.62787
H         -5.55067       -0.47513       -0.15014
H         -4.95213       -1.70672        1.00760
H         -4.86751        0.04142        1.42984
S          0.49403        1.13101       -0.15446
O          0.99336        0.49472       -1.35653
O         -0.00014        0.24811        0.91973
O         -0.65668        2.17430       -0.50125
H         -1.52932        1.70380       -0.57378
C          1.70892        2.21392        0.52499
H          2.53735        1.55976        0.83982
H          2.01369        2.90831       -0.25810
H          1.26686        2.73602        1.37299
H          3.67874       -2.29966        1.03524
H          2.22889       -1.39817        0.56581
H          3.51378       -1.97477       -1.41991
H          3.50758       -0.22592       -1.19343
H          5.75623       -2.00646       -0.57978
H          5.73367       -0.71564       -1.57990
H          3.47585       -0.36662        2.42920
H          4.70621       -0.07110        1.38067
C          3.32028       -1.34030        0.62436
C          3.88712       -1.16382       -0.77815
N          3.69898       -0.19485        1.45465
N          5.34986       -1.08676       -0.71891
