37
2msa1ma1eda_514.log	Energy: -1013348.8579373
S          2.68784       -0.19760       -0.52121
O          3.77085        0.37335       -1.30533
O          1.33320        0.01259       -1.16674
O          2.63381        0.26805        0.90017
H          1.32931        0.83277        1.52435
C          2.90489       -1.96538       -0.43824
H          2.92187       -2.34913       -1.45888
H          3.85768       -2.15518        0.05665
H          2.07743       -2.39300        0.13149
S         -1.17356       -1.65013        0.45437
O         -1.58699       -0.43428        1.19439
O         -0.16133       -2.46178        1.11925
O         -0.73229       -1.26994       -0.98666
H          0.20590       -0.74587       -1.02846
C         -2.63167       -2.59108        0.10689
H         -3.01624       -2.94387        1.06465
H         -3.34449       -1.91938       -0.38290
H         -2.34532       -3.42864       -0.52874
N         -3.99991        0.34122       -0.63374
H         -4.92014        0.74286       -0.49373
C         -3.30656        0.99180       -1.74372
H         -3.18949        2.08153       -1.63236
H         -2.31314        0.54836       -1.84984
H         -3.85114        0.80667       -2.67363
H         -3.47534        0.45332        0.22932
H         -0.49278        3.13187        2.17559
H          1.13041        3.16354        1.45524
H          0.17602        1.88981       -0.54112
H         -1.42104        2.04780        0.18980
H          0.22838        4.24601       -0.80218
H         -1.32518        3.89480       -1.14754
H          0.67749        1.26948        3.00979
H         -0.32426        0.61166        1.84414
C          0.18347        2.61878        1.48883
C         -0.44312        2.53050        0.10003
N          0.47448        1.25460        2.01276
N         -0.63379        3.88511       -0.40695
