37
2msa1ma1eda_395.log	Energy: -1013352.6426226
S          2.46663       -1.11643        0.11219
O          2.37769       -0.79661        1.53510
O          2.70303        0.01005       -0.79542
O          1.23454       -1.95461       -0.35354
H          0.31917       -1.46576       -0.20411
C          3.74812       -2.31947       -0.13898
H          4.68665       -1.84587        0.15023
H          3.53732       -3.18206        0.49225
H          3.76115       -2.59353       -1.19342
S         -1.65166        0.03829       -0.94257
O         -2.38487        1.13088       -0.28655
O         -0.94451       -0.83451        0.06040
O         -0.69494        0.50792       -1.98854
H          0.44538        1.53828       -1.45028
C         -2.82977       -1.00893       -1.76299
H         -3.55313       -1.33099       -1.00758
H         -3.31775       -0.41575       -2.53703
H         -2.29251       -1.85048       -2.20066
N         -4.48148       -0.75506        1.11997
H         -4.05199        0.14051        0.90004
C         -3.69029       -1.46268        2.12583
H         -3.61890       -0.94907        3.09671
H         -4.12186       -2.45385        2.29694
H         -2.67577       -1.59809        1.74216
H         -5.42056       -0.57485        1.45675
H          0.68595        4.04049        0.10584
H         -0.76679        3.05273       -0.26219
H         -0.09621        2.76316        2.11518
H          0.08083        1.25772        1.22907
H          2.21964        2.88411        2.29532
H          2.19602        1.26684        1.93639
H          1.32140        2.92479       -1.80549
H          1.89065        1.87969       -0.63573
C          0.28637        3.02666        0.02509
C          0.49194        2.26722        1.33427
N          1.04384        2.31211       -1.04312
N          1.91850        2.19157        1.62241
