42
2msa2eda_360.log	Energy: -1072752.8730757
S         -0.38117        2.17290        0.41189
O         -0.38184        2.05701       -1.05085
O          0.84407        1.58722        1.05106
O         -1.61281        1.64522        1.06609
C         -0.34415        3.91081        0.81266
H          0.55231        4.34009        0.36466
H         -1.24018        4.37087        0.39570
H         -0.32312        4.01533        1.89736
S          2.79038       -0.70191       -0.68874
O          1.53149       -0.97885       -1.37299
O          3.14635       -1.56427        0.43250
O          2.86846        0.81472       -0.27062
H          2.02754        1.12680        0.22600
C          4.11897       -0.72217       -1.87030
H          3.87372       -0.03142       -2.67625
H          5.03662       -0.42744       -1.36199
H          4.19602       -1.74402       -2.24295
H         -0.80483       -2.75086        0.89950
H         -0.22248       -1.26433        0.13401
H          1.26717       -1.94188        2.03966
H          0.49778       -0.38687        2.33842
H         -0.20971       -2.92600        3.60694
H         -0.00378       -1.45826        4.28668
H         -2.66816       -1.37060        0.68493
H         -2.16237       -1.28417        2.32736
C         -0.62133       -1.68348        1.05952
C          0.30615       -1.45990        2.24575
N         -1.92940       -1.04328        1.35765
N         -0.36305       -1.93271        3.46687
H         -1.83692       -0.00176        1.28329
H         -4.25600       -1.39996       -2.68019
H         -4.91719       -0.52850       -1.28777
H         -3.24526        0.81436       -2.60164
H         -2.81844        0.63957       -0.90581
H         -1.54674       -0.78022       -3.11122
H         -0.87626        0.09876       -1.90786
H         -4.22982       -2.77095       -0.68987
H         -2.69476       -2.42475       -1.17804
C         -4.00679       -0.98171       -1.69277
C         -2.92218        0.08572       -1.84351
N         -3.54169       -2.02958       -0.77012
N         -1.63618       -0.54211       -2.12882
