29
2msa1a1ma_19.log	Energy: -929311.9595597
S          1.68920       -1.17732       -0.08076
O          0.88228       -1.79950        0.97603
O          2.76067       -0.27121        0.37337
O          0.81154       -0.47018       -1.10393
C          2.47688       -2.48934       -0.99613
H          3.13671       -3.02140       -0.31043
H          1.70164       -3.15504       -1.37607
H          3.04464       -2.04655       -1.81425
S         -2.49153       -0.10490        0.11004
O         -3.88691        0.03791       -0.24324
O         -1.76958        1.08524        0.58915
O         -1.74548       -0.68758       -1.15320
H         -0.73159       -0.65201       -1.07969
C         -2.29717       -1.37206        1.33824
H         -2.77208       -1.00787        2.24993
H         -2.79920       -2.26736        0.97148
H         -1.22780       -1.54702        1.48161
N          2.37675        2.29678        1.75037
H          1.95985        2.28024        2.67586
H          3.19604        2.89356        1.79528
H          2.68716        1.34600        1.52932
N          0.56734        2.20133       -0.40265
H          0.84879        1.29521       -0.82689
H         -0.36751        1.99925       -0.00872
C          0.53808        3.30315       -1.38081
H          0.22910        4.22250       -0.88312
H          1.53321        3.43506       -1.80596
H         -0.16922        3.06513       -2.17542
H          1.23186        2.38106        0.40126
