35
2msa1ma1dma_126.log	Energy: -978624.5739749
S          2.18820       -0.86633        0.06894
O          2.56122        0.56345        0.23730
O          2.31412       -1.37569       -1.29847
O          0.80519       -1.10238        0.63745
C          3.28666       -1.79909        1.11598
H          4.30454       -1.62634        0.76571
H          3.16666       -1.45276        2.14237
H          3.02379       -2.85305        1.02560
S         -2.35319       -0.81256       -0.33957
O         -3.53979       -1.17538       -1.08132
O         -1.93422        0.59747       -0.34626
O         -1.16837       -1.71209       -0.84568
H         -0.31139       -1.51065       -0.32297
C         -2.52974       -1.29426        1.36613
H         -3.31572       -0.67691        1.80222
H         -2.80516       -2.34850        1.39204
H         -1.57590       -1.12702        1.86933
N          0.12632        1.72390        1.93258
H          0.24629        0.74558        1.67617
C         -1.11713        1.92698        2.67076
H         -1.20756        1.33115        3.59199
H         -1.21470        2.98185        2.94473
H         -1.95693        1.68068        2.01514
H          0.93317        1.96615        2.49776
N          0.46595        1.84452       -1.05937
C          0.29304        3.30649       -0.94501
C          0.61119        1.34234       -2.44512
H          1.28649        1.53206       -0.49417
H         -0.59479        3.60558       -1.50450
H          0.17236        3.53312        0.11410
H          1.17545        3.80387       -1.35030
H         -0.30834        1.54920       -2.99396
H          1.45893        1.84060       -2.91712
H          0.80039        0.26863       -2.41043
H         -0.35298        1.38219       -0.62681
