42
2msa2eda_466.log	Energy: -1072749.9369966
S         -2.17625        0.89941       -0.98717
O         -3.46582        1.57686       -1.12286
O         -2.15748       -0.53398       -1.35042
O         -1.58821        1.07191        0.41036
H         -1.88356       -0.12497        1.30101
C         -1.01412        1.71935       -2.06605
H         -1.38390        1.59617       -3.08489
H         -0.98926        2.77834       -1.80479
H         -0.02601        1.26561       -1.95495
S          2.17463       -0.89850       -0.98904
O          3.46431       -1.57545       -1.12611
O          2.15512        0.53505       -1.35177
O          1.58784       -1.07175        0.40894
H          1.88605        0.12446        1.29988
C          1.01172       -1.71810       -2.06730
H          1.38021       -1.59400       -3.08649
H          0.98734       -2.77729       -1.80685
H          0.02369       -1.26451       -1.95483
H         -3.01238       -2.84239        1.96796
H         -3.16570       -1.91735        0.43357
H         -1.40539       -3.76798        0.31243
H         -0.83124       -2.13563       -0.04582
H         -0.11702       -3.73101        2.24798
H          0.69195       -2.50769        1.46788
H         -2.84820       -0.60825        2.61940
H         -1.27202       -1.20096        2.50894
C         -2.50559       -2.17901        1.26122
C         -1.19833       -2.78554        0.74987
N         -2.12437       -0.93600        1.98550
N         -0.21043       -2.81426        1.82889
H          3.01533        2.84197        1.96611
H          3.16663        1.91775        0.43100
H          1.40499        3.76809        0.31493
H          0.83191        2.13581       -0.04539
H          0.11719        3.72752        2.25032
H         -0.68934        2.50226        1.47079
H          2.85378        0.60703        2.61620
H          1.27714        1.19969        2.50967
C          2.50776        2.17865        1.25988
C          1.19930        2.78474        0.75097
N          2.12840        0.93512        1.98424
N          0.21258        2.81100        1.83120
