42
2msa2eda_10.log	Energy: -1072771.4628429
S          3.13663        0.10855       -0.32765
O          2.73120        1.27287       -1.13016
O          2.97767       -1.20226       -1.01743
O          2.46960        0.09743        1.01764
C          4.88443        0.26091       -0.00404
H          5.19500       -0.57772        0.61909
H          5.40453        0.24358       -0.96197
H          5.05361        1.20823        0.50811
S         -2.65773       -0.12735       -0.41925
O         -2.96893        0.85871        0.63231
O         -3.07621       -1.51027       -0.14609
O         -1.19024       -0.05427       -0.79080
C         -3.52246        0.38894       -1.89389
H         -4.59155        0.34398       -1.68438
H         -3.22034        1.40797       -2.13701
H         -3.26030       -0.29392       -2.70200
H          1.00279        3.59638        0.90772
H          0.89591        2.87048       -0.71274
H         -0.89059        4.66576       -0.19570
H         -1.54533        3.11354       -0.71792
H         -2.15775        4.37592        1.64955
H         -2.45857        2.78988        1.29737
H          1.14452        1.17793        1.01768
H         -0.30045        1.76465        1.72011
C          0.37852        2.99903        0.23905
C         -1.01133        3.61866        0.09702
N          0.22947        1.65763        0.85053
N         -1.73676        3.50368        1.36109
H         -0.32387        1.03329        0.22254
H          1.34012       -3.45423        0.95380
H          1.04645       -1.78456        1.47157
H         -0.62247       -3.55261        2.39485
H         -1.37174       -2.17328        1.58992
H         -1.60602       -4.84722        0.81373
H         -2.24973       -3.49945        0.11060
H          1.44581       -1.92372       -0.86753
H          0.10812       -3.01072       -1.01378
C          0.62577       -2.62763        0.92007
C         -0.75043       -3.05914        1.42599
N          0.51008       -2.22014       -0.50244
N         -1.39162       -3.93203        0.44145
H         -0.15065       -1.41972       -0.61665
