42
2msa2eda_515.log	Energy: -1072743.6886840
S         -2.53013       -0.64925       -0.78348
O         -3.32661       -0.37166        0.42500
O         -2.05836       -2.04039       -0.91326
O         -1.38390        0.32796       -0.91292
C         -3.57597       -0.31237       -2.19324
H         -4.41148       -1.01232       -2.15946
H         -3.93512        0.71444       -2.11956
H         -2.99265       -0.45837       -3.10263
S          2.66411       -1.01065       -0.58242
O          2.44153        0.03194        0.40812
O          3.62091       -2.07295       -0.32391
O          3.16029       -0.24186       -1.92823
H          3.92551       -0.72023       -2.27779
C          1.10353       -1.66627       -1.09357
H          0.66949       -2.15035       -0.21740
H          0.44996       -0.84783       -1.40555
H          1.27014       -2.38552       -1.89455
H         -0.56370        0.13415        3.59087
H         -2.00689        0.23602        2.54194
H         -1.57900       -2.09156        3.30333
H         -1.54470       -1.92573        1.54660
H          0.84126       -2.16830        3.24581
H          0.35269       -3.14759        2.03725
H          0.02068        1.50068        1.73595
H          0.73786       -0.00334        1.48348
C         -0.99156       -0.15492        2.62525
C         -1.00833       -1.67047        2.46398
N         -0.16745        0.47441        1.56936
N          0.35766       -2.18426        2.35307
H         -0.62861        0.41888        0.62831
H          1.40636        4.59509        0.35916
H          2.22815        3.07463        0.77314
H          1.38126        3.15679       -1.59622
H          0.80041        1.78716       -0.67202
H         -0.78217        3.92210       -1.72292
H         -1.22421        2.41409       -1.20331
H          0.55771        3.78841        2.44283
H         -0.59993        3.59812        1.28501
C          1.25935        3.51711        0.52093
C          0.72568        2.87437       -0.76301
N          0.30710        3.26188        1.61264
N         -0.67214        3.23938       -0.98484
