29
2msa1a1ma_11.log	Energy: -929315.0656249
S          2.30566       -0.32121        0.18117
O          1.92767       -1.75302        0.02143
O          1.50945        0.39673        1.19507
O          2.32367        0.40178       -1.13004
H          1.09870        1.50935       -1.24069
C          3.99647       -0.35087        0.74565
H          4.02326       -0.88006        1.69833
H          4.59752       -0.86891       -0.00153
H          4.33256        0.67892        0.86759
S         -2.53179       -0.17224        0.17540
O         -3.85155        0.41868       -0.01042
O         -1.55796        0.16491       -0.93607
O         -2.51340       -1.64970        0.39018
H         -1.23356       -2.31384       -0.39793
C         -1.81664        0.53763        1.65154
H         -1.89367        1.62375        1.57674
H         -2.40059        0.18455        2.50208
H         -0.77253        0.22550        1.72845
N         -0.43450       -2.41006       -1.08519
H         -0.41878       -3.32182       -1.53120
H          0.48790       -2.19501       -0.61962
H         -0.61839       -1.66756       -1.76291
N          0.22152        2.09465       -1.20439
H          0.08621        2.55616       -2.10065
C          0.28270        3.06104       -0.08530
H         -0.68128        3.56034        0.01840
H          0.52518        2.49735        0.81579
H          1.06483        3.79617       -0.27709
H         -0.56666        1.39640       -1.06635
