43
2msa1eda1tma_271.log	Energy: -1062666.7636944
S         -2.60180       -1.18965       -0.88420
O         -2.89913       -2.36292       -1.67386
O         -1.05587       -0.89815       -1.00651
O         -2.95016       -1.22078        0.55179
H         -1.81427       -1.07483        1.79907
C         -3.35674        0.25259       -1.59271
H         -3.12216        0.25370       -2.65723
H         -4.43168        0.16621       -1.43092
H         -2.94136        1.14343       -1.11312
S         -0.22194        2.37793        0.00682
O         -1.32991        2.79089       -0.85924
O          1.12540        2.39754       -0.56287
O         -0.52766        0.99860        0.61345
H         -0.79722       -0.10270       -0.41597
C         -0.21656        3.45422        1.43328
H         -0.00570        4.46295        1.07656
H         -1.19953        3.41801        1.90378
H          0.56582        3.12333        2.11734
H          0.40577       -1.64078        3.71159
H         -0.63530       -2.81280        2.84889
H          1.57846       -2.76060        1.83749
H          0.42764       -2.07930        0.68725
H          2.59633       -0.83371        1.11395
H          1.26437        0.06696        1.19169
H         -1.62455       -0.56056        3.37323
H         -0.69195        0.06839        2.13305
C         -0.09350       -1.86759        2.76775
C          0.93709       -1.89458        1.64630
N         -1.11269       -0.79717        2.52600
N          1.74988       -0.68787        1.67195
N          3.65338       -0.74186       -0.69710
C          4.25601        0.58417       -0.68376
H          3.49583        1.32936       -0.43466
H          5.04870        0.62048        0.06999
H          4.69445        0.85196       -1.66300
C          4.63254       -1.76830       -1.00657
H          5.43763       -1.74918       -0.26568
H          4.15898       -2.75449       -0.97421
H          5.08195       -1.63500       -2.00902
C          2.52303       -0.78862       -1.61548
H          2.01953       -1.75741       -1.53825
H          1.81010       -0.00089       -1.35839
H          2.83141       -0.63944       -2.66629
