37
2msa1ma1eda_223.log	Energy: -1013361.6115276
S         -2.29913       -0.77656        0.09288
O         -1.89428       -1.54939       -1.08783
O         -2.82330        0.57703       -0.17456
O         -1.18435       -0.71257        1.12615
C         -3.60294       -1.68446        0.90507
H         -4.44342       -1.74602        0.21325
H         -3.22761       -2.67996        1.14314
H         -3.88505       -1.14840        1.81112
S          1.85333       -1.80540       -0.14830
O          3.13221       -2.43268        0.11953
O          1.80878       -0.34133       -0.25119
O          0.85388       -2.26968        0.98176
H          0.02114       -1.68648        1.01530
C          1.14681       -2.48049       -1.63136
H          1.78015       -2.16479       -2.46130
H          1.14955       -3.56616       -1.53368
H          0.12784       -2.09691       -1.72942
N          2.83981        2.06244        1.08002
H          3.31066        2.43026        1.89973
C          3.36032        2.67591       -0.14646
H          4.43878        2.53599       -0.28615
H          2.84976        2.22902       -1.00350
H          3.14715        3.74862       -0.13926
H          3.00331        1.05771        1.04701
H         -1.82609        2.34624        1.05662
H         -0.52723        3.44667        1.59112
H         -1.92318        4.25763       -0.40270
H         -0.17711        4.23574       -0.69549
H         -1.96297        2.04696       -1.53222
H         -1.16977        3.11468       -2.52769
H         -0.23371        0.81943        0.96394
H          0.11944        1.53755       -0.46346
C         -0.87818        2.80826        0.77800
C         -1.05238        3.59827       -0.52296
N          0.09479        1.71207        0.55375
N         -1.14915        2.65355       -1.62754
H          1.07771        1.92116        0.87223
