34
2msa1a1eda_116.log	Energy: -988703.8450530
S          1.25852        1.83183        0.00165
O         -0.04195        1.87843       -0.75261
O          2.41038        1.63217       -0.88695
O          1.18221        0.85383        1.12051
C          1.43784        3.43667        0.75532
H          1.45278        4.18118       -0.04070
H          0.59230        3.59981        1.42388
H          2.37684        3.44585        1.30902
S         -2.64821       -0.29184        0.03198
O         -2.21757       -1.13158        1.15760
O         -2.28602       -0.76568       -1.29917
O         -2.19950        1.18606        0.24547
H         -1.26426        1.43760       -0.17544
C         -4.40988       -0.09869        0.14761
H         -4.84873       -1.09167        0.04733
H         -4.64396        0.33204        1.12071
H         -4.73588        0.55468       -0.66100
N          3.03150       -2.62451        1.65801
H          3.27941       -2.26482        0.72874
H          3.45551       -3.53631        1.78711
H          3.42189       -1.99632        2.35310
H          0.89559       -3.36120       -0.58702
H         -0.51118       -2.34675       -1.00926
H          1.31352       -1.98699       -2.58770
H          0.90760       -0.51816       -1.72407
H          3.40355       -1.71303       -1.86119
H          2.97116       -0.37750       -1.02548
H         -0.39939       -1.86898        1.16514
H          1.28754       -2.21912        1.29320
C          0.52105       -2.33603       -0.65399
C          1.37188       -1.50371       -1.60646
N          0.52499       -1.77544        0.72968
N          2.76320       -1.36783       -1.15640
H          0.73698       -0.75101        0.75308
