37
2msa1ma1eda_268.log	Energy: -1013360.6507792
S         -2.62892       -0.17009       -0.41602
O         -2.54420        1.29256       -0.67638
O         -2.88312       -0.52614        0.98600
O         -1.42626       -0.87194       -0.99230
C         -4.00941       -0.75627       -1.37982
H         -4.90312       -0.23981       -1.02894
H         -3.81853       -0.53195       -2.42909
H         -4.10044       -1.83105       -1.22197
S          1.72560       -1.64828        0.19577
O          2.29043       -1.61067        1.53421
O          1.76781       -0.41386       -0.60186
O          0.27087       -2.21135        0.23635
H         -0.44734       -1.61321       -0.23461
C          2.57114       -2.91716       -0.72336
H          2.45700       -3.85695       -0.18326
H          2.12402       -2.98227       -1.71510
H          3.62283       -2.63555       -0.78451
N          2.34551        2.37635       -1.82768
H          2.29895        1.44051       -2.22333
C          3.43576        2.43712       -0.84684
H          4.42885        2.25960       -1.27809
H          3.43945        3.41971       -0.36678
H          3.25647        1.67539       -0.08390
H          2.50581        3.02436       -2.59155
H          1.21171        2.65557        1.43219
H         -0.26637        3.57603        1.06914
H         -0.47851        2.16014        3.16780
H         -1.67913        1.76275        1.93158
H          0.57284        0.07913        2.68758
H         -0.95210       -0.31356        2.14549
H          0.76238        2.30946       -0.86308
H          0.40040        0.92803       -0.03279
C          0.15637        2.57240        1.15599
C         -0.61281        1.71876        2.17098
N          0.09809        1.90797       -0.16436
N         -0.17964        0.33820        2.06249
H         -0.88038        1.85218       -0.51576
