22
2msa1a_31.log	Energy: -869130.7897948
S         -2.09298       -0.48628       -0.03746
O         -1.08913       -0.22509       -1.06874
O         -2.53106       -1.85115        0.19097
O         -3.39976        0.37506       -0.45932
H         -4.12179       -0.24919       -0.62277
C         -1.61652        0.32588        1.45408
H         -0.69269       -0.15852        1.78056
H         -1.42057        1.37639        1.19763
H         -2.42033        0.19971        2.17894
S          2.16167       -0.12955        0.08907
O          1.47573       -0.69471        1.24382
O          2.25677        1.32012       -0.01106
O          1.53121       -0.72952       -1.24690
H          0.54728       -0.60473       -1.23125
C          3.78416       -0.83374       -0.05595
H          3.69092       -1.91906       -0.05172
H          4.23379       -0.47421       -0.98097
H          4.35113       -0.48781        0.80888
N         -0.48512        2.91558       -0.07234
H          0.47417        2.57401       -0.05181
H         -0.46238        3.91716        0.08528
H         -0.83859        2.76008       -1.01115
