41
2msa1dma1tma_42.log	Energy: -1027942.4582461
S          0.45737       -0.96230       -0.87649
O         -0.75938       -1.65181       -1.39332
O          0.34628       -0.63521        0.56618
O          0.81132        0.24637       -1.68111
H          0.10121        1.53461       -0.92819
C          1.79577       -2.11090       -1.08521
H          1.54434       -3.01708       -0.53318
H          1.88904       -2.32367       -2.15041
H          2.70774       -1.64839       -0.69090
S         -3.44447       -0.30967        0.49668
O         -4.86956       -0.29201        0.73905
O         -2.76488        0.99333        0.38162
O         -3.19532       -1.15107       -0.80523
H         -2.21008       -1.28283       -1.03317
C         -2.61387       -1.23018        1.77103
H         -2.79209       -0.70304        2.70930
H         -3.05401       -2.22691        1.80189
H         -1.54659       -1.25978        1.53438
N         -0.42919        2.21733       -0.32577
C         -0.89228        3.36249       -1.13370
C          0.40579        2.57400        0.84019
H         -1.25852        1.68069       -0.00000
H         -0.02808        3.90015       -1.52660
H         -1.49837        2.98374       -1.95640
H         -1.49579        4.02464       -0.51119
H          1.29489        3.10552        0.49628
H         -0.17047        3.20695        1.51697
H          0.69380        1.64590        1.33441
N          4.22183       -0.29212        0.47210
C          3.55224       -0.39518        1.75859
H          2.46996       -0.32527        1.61745
H          3.77239       -1.36571        2.21353
H          3.87665        0.39557        2.46353
C          5.65660       -0.46858        0.60658
H          5.86917       -1.44179        1.05853
H          6.13044       -0.43811       -0.37892
H          6.12137        0.31361        1.23802
C          3.90183        0.96252       -0.18561
H          4.39688        1.00845       -1.15993
H          2.82402        1.02401       -0.35969
H          4.22313        1.84197        0.40818
