35
2msa1ma1dma_292.log	Energy: -978614.2172010
S          1.71572       -1.63551       -0.12142
O          2.58984       -1.12176        0.93103
O          1.69999       -0.87953       -1.37458
O          0.25565       -1.83500        0.41352
H         -0.21528       -0.91500        0.53417
C          2.13485       -3.32777       -0.45664
H          3.15344       -3.33130       -0.84564
H          2.07392       -3.88694        0.47657
H          1.43485       -3.71486       -1.19635
S         -1.48402        1.21371       -0.35314
O         -2.85097        1.56252        0.02504
O         -0.74946        0.42832        0.70748
O         -0.63787        2.39510       -0.73121
H          0.69388        2.46923        0.00734
C         -1.54301        0.16322       -1.78860
H         -2.16078       -0.70137       -1.52571
H         -2.00417        0.73693       -2.59345
H         -0.52171       -0.12432       -2.04486
N         -3.90055       -1.36044        0.03656
H         -4.01815       -0.35115        0.08564
C         -3.42190       -1.86977        1.32017
H         -4.13303       -1.75138        2.15180
H         -3.17919       -2.93280        1.22619
H         -2.50428       -1.34010        1.58711
H         -4.79743       -1.76813       -0.20273
N          1.65860        2.65919        0.45331
C          2.70885        2.24098       -0.50742
C          1.75799        2.00349        1.78234
H          1.69020        3.67070        0.57501
H          2.57535        1.17976       -0.71979
H          2.58656        2.81273       -1.42757
H          3.69444        2.41857       -0.07353
H          1.84224        0.92759        1.63323
H          2.64414        2.37634        2.29991
H          0.85333        2.22485        2.34740
