35
2msa1ma1dma_170.log	Energy: -978620.4344142
S         -1.40856        1.12926       -0.50298
O         -2.70459        1.68730       -0.12912
O         -0.76945        0.34395        0.63404
O         -0.41409        2.13023       -0.99260
H          0.97414        1.98117       -0.18414
C         -1.65145       -0.04763       -1.81523
H         -2.36995       -0.78928       -1.45233
H         -2.05873        0.49861       -2.66695
H         -0.68685       -0.49259       -2.06616
S          1.68413       -1.68199       -0.13864
O          2.48061       -0.78432        0.72004
O          1.62028       -1.31138       -1.54688
O          0.26228       -1.87463        0.46586
H         -0.24386       -0.93675        0.52431
C          2.33037       -3.32500        0.02901
H          3.34464       -3.30930       -0.37064
H          2.32917       -3.59134        1.08532
H          1.69735       -3.99673       -0.55026
N         -4.13137       -1.07966        0.17701
H         -4.13511       -0.06323        0.14106
C         -3.63243       -1.53222        1.47394
H         -4.27142       -1.26357        2.32901
H         -3.51482       -2.62043        1.46362
H         -2.64704       -1.09035        1.64122
H         -5.07986       -1.40141        0.02026
N          1.83320        1.93597        0.43448
C          1.45727        2.47827        1.75763
C          2.95107        2.63377       -0.22920
H          2.07210        0.93218        0.53985
H          1.16110        3.52167        1.64096
H          0.61276        1.89555        2.12589
H          2.30483        2.39953        2.44063
H          2.67767        3.67751       -0.39023
H          3.84404        2.57388        0.39538
H          3.13864        2.15196       -1.18881
