43
2msa1eda1tma_256.log	Energy: -1062668.5297696
S         -2.96201       -0.57439        0.67346
O         -4.06757        0.06222        1.38924
O         -1.67144       -0.51020        1.43881
O         -2.77153       -0.04455       -0.71823
H         -2.62128        1.43629       -0.91967
C         -3.30779       -2.30360        0.44331
H         -3.40274       -2.76084        1.42856
H         -4.24052       -2.39036       -0.11414
H         -2.47465       -2.73125       -0.11754
S          0.72655       -1.41818       -0.95903
O          0.80873       -0.21604       -1.79079
O         -0.30016       -2.40161       -1.27552
O          0.62107       -0.99921        0.56146
H         -0.35684       -0.85837        0.87281
C          2.32392       -2.18812       -0.93944
H          2.54858       -2.46039       -1.97160
H          3.04931       -1.46369       -0.54809
H          2.26382       -3.07588       -0.30997
H         -1.76107        4.05480        0.25281
H         -2.25914        2.56391        1.10540
H          0.30045        2.90715        0.93218
H         -0.31153        1.36277        0.35196
H          0.91469        3.40406       -1.23341
H          0.63356        1.80766       -1.57168
H         -3.30013        2.99022       -1.17662
H         -1.74632        2.65346       -1.75957
C         -1.73508        2.96191        0.23394
C         -0.29717        2.43457        0.14578
N         -2.42808        2.50041       -0.99696
N          0.22655        2.66346       -1.19953
N          4.05513        0.18068        0.61500
C          3.26051        1.33439        0.23145
H          3.42264        1.56018       -0.82696
H          2.20187        1.10588        0.37202
H          3.51132        2.23515        0.82626
C          3.76030       -0.23003        1.97817
H          2.69430       -0.45471        2.06902
H          4.32524       -1.13528        2.22142
H          4.02289        0.54909        2.71900
C          5.47304        0.42366        0.42306
H          6.04086       -0.47907        0.66775
H          5.66767        0.67665       -0.62354
H          5.84989        1.25047        1.05560
