40
2msa1dma1eda_27.log	Energy: -1038036.8437180
S         -2.92209        0.63036        0.11199
O         -2.41423        1.72351        0.96831
O         -3.46644       -0.54004        0.81552
O         -1.86211        0.21127       -0.89039
C         -4.24296        1.31800       -0.87096
H         -5.03379        1.62986       -0.18831
H         -3.85551        2.17298       -1.42499
H         -4.60347        0.54654       -1.55130
S          2.43432       -1.02277       -0.23164
O          1.68600       -0.43565        0.93046
O          2.71809       -0.01135       -1.26427
O          1.75928       -2.24979       -0.73582
C          4.00149       -1.56852        0.42240
H          4.52240       -0.70161        0.83030
H          3.81287       -2.30691        1.20164
H          4.57059       -2.00857       -0.39668
N         -0.89198       -2.25074       -0.04231
C         -1.77111       -3.23483       -0.70428
C         -0.90210       -2.33366        1.43758
H          0.09592       -2.33807       -0.37501
H         -2.79688       -3.05567       -0.37882
H         -1.69538       -3.10122       -1.78346
H         -1.45550       -4.24370       -0.43358
H         -1.90252       -2.08482        1.79234
H         -0.61706       -3.34492        1.73362
H         -0.16926       -1.61910        1.81311
H         -1.21306       -1.30157       -0.33487
H          1.52667        2.26545       -1.56007
H          0.32976        3.51000       -1.11333
H          2.55020        4.22378       -0.39073
H          1.57828        3.90742        1.03470
H          2.74700        1.90093        1.40071
H          3.47744        1.95603       -0.04998
H         -0.40305        1.21564       -0.62802
H          0.86751        0.99809        0.41420
C          1.03470        2.76963       -0.72519
C          2.07675        3.42211        0.18688
N          0.25396        1.73176       -0.01013
N          3.10934        2.53759        0.69859
H         -0.37349        2.10764        0.71088
