26
2msa2a_14.log	Energy: -904651.5092898
S          1.80466       -0.76678        0.06196
O          3.15862       -0.19969        0.04390
O          0.95872       -0.22547       -1.05678
O          1.09793       -0.60891        1.36742
C          1.94379       -2.52088       -0.21789
H          2.43979       -2.66877       -1.17722
H          2.53646       -2.94473        0.59293
H          0.94226       -2.95201       -0.23214
S         -2.45117        0.04008       -0.16151
O         -3.82700       -0.03966       -0.59648
O         -1.92521        1.35735        0.22997
O         -1.55174       -0.56884       -1.29913
H         -0.55185       -0.40632       -1.16551
C         -2.18820       -1.06901        1.20589
H         -2.78207       -0.69661        2.04170
H         -2.53492       -2.05758        0.90410
H         -1.12179       -1.07347        1.44891
N          0.54531        2.11278        1.22677
H          0.84920        1.17214        1.55068
H         -0.40393        1.97302        0.83379
H          0.52621        2.78282        1.98928
H          1.21570        2.41849        0.44715
N          2.29395        2.53503       -0.87975
H          2.74139        3.38856       -1.19606
H          1.77716        2.13391       -1.65911
H          3.01173        1.84428       -0.65393
