42
2msa2eda_63.log	Energy: -1072768.8987012
S         -2.00250       -1.68918       -0.46768
O         -2.54237       -0.68053       -1.41690
O         -1.46866       -1.03514        0.76916
O         -1.01268       -2.61384       -1.06438
C         -3.39533       -2.67780        0.04164
H         -3.81340       -3.15226       -0.84629
H         -3.04288       -3.42663        0.75099
H         -4.12749       -2.01866        0.50896
S          1.83977        1.77245       -0.31166
O          1.11355        2.60928       -1.29458
O          2.50525        0.58518       -0.92642
O          0.97737        1.36426        0.83278
C          3.15213        2.77754        0.35303
H          3.79482        3.08218       -0.47329
H          2.70583        3.64788        0.83410
H          3.70775        2.17639        1.07331
H          2.38514       -1.79017        1.99204
H          1.62540       -3.28678        1.39282
H          3.95748       -3.49640        0.94303
H          3.20508       -3.14643       -0.61368
H          5.23728       -1.80742       -0.06746
H          3.95309       -0.80603       -0.26584
H          0.45974       -1.16893        0.78465
H          1.72749       -0.78990       -0.22446
C          2.15958       -2.37985        1.10136
C          3.45326       -2.71187        0.37012
N          1.24109       -1.58218        0.25038
N          4.33369       -1.55234        0.31330
H          0.75223       -2.15370       -0.45748
H         -1.97203        3.49092        0.37428
H         -2.99643        3.06807       -1.01312
H         -4.22413        2.72290        1.10025
H         -4.01068        1.19940        0.24698
H         -2.38675        0.51978        1.77958
H         -2.34184        2.00006        2.53399
H         -0.72549        2.16634       -1.18621
H         -0.89739        1.35836        0.20031
C         -2.48618        2.66914       -0.13258
C         -3.47832        1.97505        0.80803
N         -1.44769        1.72056       -0.59619
N         -2.91494        1.36293        1.99315
H         -1.86489        0.88904       -1.06946
