40
2msa1dma1eda_371.log	Energy: -1038016.0417415
S         -2.06435        1.06919       -0.76717
O         -2.39288        1.44018        0.64202
O         -2.39140       -0.31639       -1.11839
O         -0.64944        1.45668       -1.08299
C         -3.07315        2.12365       -1.79104
H         -4.11771        1.90715       -1.56597
H         -2.83502        3.16243       -1.56274
H         -2.84990        1.89489       -2.83329
S          2.58062        0.39428       -0.39874
O          3.20136       -0.79208        0.15943
O          2.16712        1.47479        0.50678
O          1.37620       -0.02801       -1.31188
H          0.53286        0.54562       -1.18210
C          3.70589        1.10216       -1.58264
H          4.60368        1.40161       -1.04097
H          3.94163        0.33840       -2.32353
H          3.22505        1.96337       -2.04616
N         -0.76849       -2.74085       -0.39083
C         -1.79543       -3.67170        0.04410
C          0.22261       -3.34575       -1.26565
H         -1.21238       -1.94826       -0.85051
H         -1.35370       -4.43611        0.69454
H         -2.55586       -3.13284        0.61597
H         -2.29694       -4.18916       -0.79199
H          0.77285       -4.11961       -0.71768
H         -0.21884       -3.81628       -2.16123
H          0.93774       -2.58324       -1.58202
H          0.59918        0.69369        3.84641
H         -1.15839        0.98817        3.85970
H         -0.59260       -1.44650        3.50433
H         -1.51274       -0.75291        2.16223
H          1.34976       -1.34838        2.08068
H          0.14807       -1.69561        0.98011
H          0.06610        2.55771        2.42935
H          0.62825        1.29273        1.50509
C         -0.31512        0.66120        3.24684
C         -0.54010       -0.73586        2.66547
N         -0.14827        1.61339        2.11892
N          0.48048       -1.01622        1.67824
H         -1.02326        1.62980        1.52789
