29
2msa1a1ma_98.log	Energy: -929296.7231717
S         -2.32549        0.25068       -0.00731
O         -2.08749        0.74815        1.33729
O         -2.31901       -1.21965       -0.15899
O         -1.37727        0.89860       -1.05889
H         -0.41523        0.48717       -1.11194
C         -3.88380        0.85360       -0.60590
H         -4.65033        0.48311        0.07513
H         -3.85118        1.94283       -0.59357
H         -4.03824        0.47378       -1.61508
S          1.68676       -0.82631       -0.35089
O          0.93223        0.01393       -1.33372
O          1.54218       -2.28146       -0.61398
O          1.32088       -0.48715        1.05417
H          0.11197       -1.77075        1.67539
C          3.39036       -0.39002       -0.58673
H          3.63605       -0.56638       -1.63396
H          3.49443        0.66442       -0.31249
H          3.99044       -1.02487        0.06565
N         -0.40740       -2.57270        1.27028
H          0.23821       -2.89517        0.52020
H         -1.25887       -2.17945        0.81348
H         -0.62657       -3.29191        1.95174
N          2.45177        2.41529        0.99097
H          1.95463        1.61505        1.37555
C          1.56677        3.18165        0.11462
H          0.65755        3.56173        0.60316
H          2.11335        4.03308       -0.30229
H          1.25801        2.54526       -0.71861
H          2.76281        2.98349        1.77117
