29
2msa1a1ma_122.log	Energy: -929294.0319342
S         -1.85832       -1.10136       -0.26705
O         -3.00843       -1.97408       -0.42604
O         -0.57956       -1.85678        0.05428
O         -2.02214       -0.02993        0.77660
H         -1.03005       -0.26167        1.93114
C         -1.55674       -0.25187       -1.80168
H         -1.44013       -1.00862       -2.57828
H         -2.41841        0.38448       -2.00356
H         -0.66117        0.36359       -1.70458
S          2.19867       -0.02803       -0.13463
O          2.14274       -0.11887        1.33761
O          1.54740        1.13006       -0.73082
O          1.68433       -1.35571       -0.76728
H          0.69039       -1.57526       -0.45914
C          3.90333       -0.07432       -0.61935
H          4.35817       -0.97060       -0.19930
H          3.94570       -0.08093       -1.70821
H          4.36939        0.82629       -0.21892
N         -0.26391       -0.55384        2.63417
H         -0.33139       -1.56442        2.74102
H         -0.37391       -0.09248        3.53266
H          0.66243       -0.33433        2.21097
N         -1.23104        2.77483       -0.40936
H         -1.68512        2.04292        0.12910
C         -1.42414        4.08449        0.19762
H         -0.99423        4.20048        1.20666
H         -0.98073        4.85367       -0.44232
H         -2.49497        4.29853        0.26560
H         -0.24631        2.53439       -0.46385
