35
2msa1a1tma_90.log	Energy: -978607.7656632
S          1.45107        1.97530        0.10179
O          1.53051        3.41816        0.22352
O          0.87736        1.39516       -1.11163
O          0.63754        1.40103        1.35448
H         -0.16349        0.90717        1.04438
C          3.04844        1.26442        0.38815
H          3.69717        1.62143       -0.41332
H          3.40625        1.62264        1.35398
H          2.94131        0.17036        0.36642
S         -2.14463       -0.32779       -0.63633
O         -1.47175       -1.45569       -1.24576
O         -1.62996        0.15682        0.66415
O         -3.67055       -0.64335       -0.42724
H         -3.93585       -0.59301        0.58322
C         -2.18700        1.02841       -1.77677
H         -1.14870        1.32094       -1.94624
H         -2.66301        0.67735       -2.69238
H         -2.75292        1.84149       -1.32261
N         -4.19283       -0.47864        2.11287
H         -3.30493       -0.10716        2.44438
H         -4.35324       -1.37195        2.56775
H         -4.93253        0.15726        2.39346
N          2.40720       -1.91714        0.13385
C          3.53259       -2.77246        0.46211
H          4.40501       -2.48558       -0.13376
H          3.78810       -2.65882        1.52040
H          3.32231       -3.84233        0.27112
C          1.25269       -2.21903        0.96415
H          1.50223       -2.06040        2.01814
H          0.42487       -1.55890        0.69845
H          0.90650       -3.26211        0.83729
C          2.07208       -1.99063       -1.28087
H          1.25425       -1.30127       -1.50192
H          2.94216       -1.70050       -1.87879
H          1.76290       -3.00769       -1.58518
