35
2msa1ma1dma_234.log	Energy: -978618.7950833
S         -1.97532       -1.27994       -0.09661
O         -2.92518       -0.36035        0.56285
O         -0.84164       -1.67506        0.78039
O         -1.50108       -0.76075       -1.41745
C         -2.87115       -2.77945       -0.46805
H         -3.23012       -3.20043        0.47138
H         -3.70649       -2.52196       -1.11942
H         -2.19324       -3.47181       -0.96759
S          2.78702       -0.25417       -0.04450
O          2.25264        0.65831       -1.03493
O          2.77546        0.11687        1.36505
O          4.34521       -0.51747       -0.43582
H          4.87838       -0.36954        0.35822
C          2.08629       -1.86066       -0.27670
H          1.02102       -1.79000       -0.01810
H          2.22112       -2.13221       -1.32364
H          2.60177       -2.55383        0.38782
N         -0.15192        1.18262        1.64687
H         -0.24532        0.16762        1.55517
C         -1.09468        1.65857        2.66503
H         -0.89334        1.25302        3.66398
H         -1.05935        2.75098        2.72375
H         -2.10159        1.35224        2.37096
H          0.81188        1.35399        1.91982
N         -1.02678        1.89305       -0.87823
C         -0.12370        2.69720       -1.72036
C         -2.36106        2.49478       -0.67792
H         -1.15241        0.92953       -1.26785
H          0.02678        3.67297       -1.25319
H          0.83020        2.17958       -1.80580
H         -0.57113        2.83204       -2.70744
H         -2.24888        3.44999       -0.16026
H         -2.83660        2.65572       -1.64777
H         -2.95624        1.79886       -0.08495
H         -0.58991        1.70416        0.08936
