35
2msa1ma1dma_50.log	Energy: -978629.5281685
S         -1.03153        1.61477       -0.15291
O         -0.91331        1.03108        1.20193
O         -2.40915        1.77963       -0.63818
O         -0.18768        0.82519       -1.13250
C         -0.29036        3.23667       -0.09865
H         -0.35708        3.67483       -1.09455
H         -0.84849        3.83392        0.62260
H          0.75164        3.13352        0.20751
S          2.80239       -0.28258        0.04603
O          4.24075       -0.41027       -0.04150
O          1.95700       -1.44168       -0.24823
O          2.36818        0.91328       -0.89557
H          1.36480        0.88846       -1.04753
C          2.35708        0.30662        1.66711
H          2.92525        1.21609        1.86390
H          1.28025        0.49878        1.68893
H          2.63235       -0.47200        2.38003
N         -3.55601       -0.91145       -0.34666
H         -3.40181        0.02249       -0.73513
C         -3.97518       -0.76419        1.05499
H         -4.93168       -0.24077        1.16682
H         -4.06190       -1.74946        1.52291
H         -3.20959       -0.19054        1.58315
H         -4.28274       -1.36129       -0.89408
N         -0.93276       -1.83732       -0.31984
C         -0.63209       -2.89930       -1.29912
C         -0.68131       -2.21718        1.08637
H         -0.37815       -0.99739       -0.55630
H         -1.25091       -3.77253       -1.08329
H         -0.85556       -2.52452       -2.29842
H          0.42602       -3.15296       -1.23163
H         -1.36925       -3.01879        1.36334
H          0.35331       -2.54430        1.18673
H         -0.85776       -1.33462        1.70221
H         -1.95628       -1.53619       -0.40344
