40
2msa1dma1eda_427.log	Energy: -1038012.6938592
S         -1.35092        1.19662       -0.58302
O         -1.59813        1.03205        0.85778
O         -0.57526        0.05404       -1.18273
O         -0.69137        2.49204       -0.93622
H          0.93958        2.33134       -0.92546
C         -2.91997        1.18418       -1.41301
H         -3.41010        0.23494       -1.16473
H         -3.49501        2.03332       -1.04160
H         -2.73890        1.27904       -2.48377
S          2.21974       -1.66875       -0.07713
O          2.82961       -1.75920        1.23883
O          2.63264       -0.56242       -0.95650
O          0.66458       -1.70955        0.04386
H          0.16228       -0.92497       -0.43564
C          2.55297       -3.18318       -0.94889
H          3.63439       -3.26697       -1.05993
H          2.16290       -4.00798       -0.35263
H          2.06294       -3.13591       -1.92098
N         -4.04773       -1.55561        0.08796
C         -4.58254       -0.81434        1.22212
C         -2.82847       -2.28081        0.42281
H         -4.74624       -2.20326       -0.26014
H         -3.85907       -0.04512        1.51088
H         -5.51414       -0.31843        0.93319
H         -4.78260       -1.44493        2.10595
H         -2.07298       -1.56612        0.75885
H         -2.96853       -3.02761        1.22368
H         -2.44015       -2.78570       -0.46554
H          3.46729        2.43326        0.65729
H          2.46548        3.86860        0.32636
H          1.92602        2.80698        2.55276
H          0.54092        2.87300        1.45659
H          1.96645        0.44637        2.21084
H          0.35996        0.70219        1.83979
H          2.49619        2.44453       -1.59149
H          2.07531        1.10724       -0.69929
C          2.44853        2.78614        0.47557
C          1.51123        2.39582        1.62182
N          1.97014        2.14051       -0.77585
N          1.31758        0.96050        1.62858
