40
2msa1dma1eda_67.log	Energy: -1038035.0257290
S          1.53813        1.35454       -0.82462
O          1.36410        0.05232       -1.52587
O          1.87311        1.18185        0.61041
O          0.39693        2.28650       -1.03452
H         -0.75616        2.29607        0.23408
C          2.93988        2.13864       -1.60108
H          3.80776        1.49096       -1.47442
H          2.71215        2.27413       -2.65836
H          3.10225        3.10075       -1.11499
S         -2.35742       -1.30989       -0.31232
O         -3.78627       -1.26468       -0.01310
O         -1.76890       -2.66352       -0.50335
O         -1.51208       -0.55109        0.68606
H          0.62587       -1.59182        1.10219
C         -2.10382       -0.45310       -1.86461
H         -2.60632       -1.02307       -2.64685
H         -2.54378        0.54261       -1.78851
H         -1.03183       -0.37393       -2.05608
N         -1.39946        2.04217        1.01663
C         -2.71151        2.69486        0.86118
C         -0.72542        2.30497        2.30377
H         -1.51741        0.99023        0.90193
H         -2.59828        3.77675        0.95196
H         -3.11553        2.44853       -0.12094
H         -3.39215        2.32360        1.62886
H         -0.60544        3.38151        2.44123
H         -1.32650        1.88918        3.11411
H          0.25431        1.82722        2.26829
H          3.49090       -1.45608       -0.08391
H          4.01173       -2.79088        0.94958
H          2.14231       -3.40063       -0.66960
H          1.74954       -3.70790        1.04083
H          0.96833       -1.27566       -0.47844
H         -0.09539       -2.51377       -0.06927
H          3.57113       -1.36706        2.63949
H          2.65419       -0.36468        1.69963
C          3.18391       -2.10488        0.74725
C          1.97802       -2.93422        0.30446
N          2.84203       -1.33620        1.94022
N          0.80107       -2.04870        0.20278
