40
2msa1dma1eda_208.log	Energy: -1038023.1873549
S          0.63299        2.06160        0.37690
O          1.78986        1.38881        0.99820
O         -0.63043        1.91459        1.15336
O          0.44833        1.67782       -1.05454
C          0.97897        3.80993        0.38483
H          1.89873        3.97563       -0.17632
H          0.14062        4.32780       -0.08092
H          1.09818        4.12276        1.42216
S         -2.78855       -0.44795       -0.36396
O         -4.08984       -1.08053       -0.33024
O         -1.62335       -1.27464       -0.69447
O         -2.56717        0.23365        1.04206
H         -1.74826        0.83052        1.06766
C         -2.80710        0.93128       -1.49018
H         -3.01045        0.52653       -2.48261
H         -3.60271        1.60931       -1.18168
H         -1.82730        1.41514       -1.45955
N          1.06303       -2.18004        1.19580
C          0.48217       -3.50995        1.02908
C          0.43473       -1.41609        2.27511
H          2.06669       -2.24432        1.35144
H         -0.55983       -3.40028        0.71444
H          1.02488       -4.05500        0.25050
H          0.50883       -4.10373        1.95415
H         -0.62173       -1.26854        2.03730
H          0.50474       -1.93325        3.24302
H          0.90931       -0.43579        2.34775
H          2.49113       -2.43610       -1.80239
H          2.16854       -1.18635       -3.02933
H          4.34789       -0.84179       -1.95065
H          3.26214        0.51919       -1.64591
H          4.60277       -0.61409        0.27813
H          3.08104       -0.08565        0.54229
H          0.20350       -1.46858       -1.68866
H          1.03228       -1.41688       -0.23581
C          2.29321       -1.37198       -1.95862
C          3.44635       -0.53925       -1.40899
N          1.02892       -1.04336       -1.26632
N          3.63460       -0.76758        0.02215
H          0.84294       -0.01919       -1.24589
