41
2msa1dma1tma_38.log	Energy: -1027944.1776283
S          1.33207        2.28861       -0.02671
O          1.70974        3.62436        0.37866
O          0.41213        1.68427        1.09516
O          2.41192        1.33138       -0.33201
H          2.74673       -0.31239       -0.00732
C          0.27195        2.35940       -1.44995
H         -0.55949        3.02256       -1.20925
H          0.86286        2.76508       -2.27199
H         -0.07437        1.34526       -1.66706
S         -0.25940       -1.61049       -0.26817
O          0.81033       -2.59294       -0.61232
O         -0.65434       -0.73509       -1.38184
O          0.15954       -0.83033        0.95319
H          0.27853        0.67170        0.99982
C         -1.68569       -2.54951        0.21900
H         -1.97653       -3.16875       -0.63057
H         -1.41068       -3.16960        1.07242
H         -2.47841       -1.83506        0.47244
N          3.05723       -1.29340        0.14415
C          3.24321       -1.50528        1.59550
C          4.25529       -1.55247       -0.67753
H          2.25078       -1.88626       -0.18519
H          3.99986       -0.81264        1.96722
H          2.28477       -1.31935        2.08017
H          3.55699       -2.53572        1.76950
H          5.05887       -0.88299       -0.36716
H          4.56268       -2.59134       -0.54887
H          4.00852       -1.36863       -1.72304
N         -3.85416       -0.01863        0.27075
C         -4.08657       -0.17649       -1.15578
H         -3.12872       -0.30994       -1.66652
H         -4.70245       -1.06394       -1.33415
H         -4.60567        0.69663       -1.59617
C         -5.10109        0.08808        1.00516
H         -5.71005       -0.80516        0.83520
H         -4.89606        0.16459        2.07715
H         -5.69509        0.97328        0.70479
C         -2.98291        1.11484        0.53382
H         -2.75002        1.17152        1.60074
H         -2.04647        0.98531       -0.01261
H         -3.44040        2.07550        0.22633
