40
2msa1dma1eda_415.log	Energy: -1038012.6745257
S         -2.03493        1.16538       -0.66081
O         -2.67460       -0.14594       -0.81557
O         -0.76893        1.30284       -1.44941
O         -1.81935        1.55680        0.76545
C         -3.14499        2.38991       -1.32916
H         -3.29664        2.16295       -2.38457
H         -4.08640        2.32841       -0.78313
H         -2.68777        3.37171       -1.20651
S          2.26477        1.17044        0.25747
O          2.50266       -0.03720       -0.52065
O          1.73203        0.99193        1.61067
O          1.39434        2.20000       -0.54349
H          0.49463        1.81240       -0.88184
C          3.76891        2.11026        0.37194
H          4.47046        1.51025        0.95225
H          4.14582        2.28005       -0.63604
H          3.55270        3.05091        0.87743
N          0.43532       -3.19357       -1.47592
C          1.87577       -3.36981       -1.62773
C         -0.03661       -1.94808       -2.08142
H         -0.04800       -3.97853       -1.90037
H          2.38638       -2.55693       -1.10347
H          2.18318       -4.32051       -1.18137
H          2.20522       -3.35203       -2.68006
H          0.44616       -1.10312       -1.58529
H          0.19410       -1.87925       -3.15700
H         -1.11440       -1.84147       -1.94101
H         -1.42240       -1.67311        3.64245
H         -2.62469       -0.75870        2.69200
H         -2.21499       -3.10056        1.78143
H         -1.86349       -1.81935        0.61506
H          0.11349       -3.43081        2.03062
H          0.09241       -2.93211        0.44605
H         -0.29934        0.32345        3.20456
H          0.20024       -0.66907        1.97411
C         -1.64003       -1.22888        2.66702
C         -1.52813       -2.27511        1.55250
N         -0.61962       -0.19018        2.38780
N         -0.13166       -2.66384        1.41482
H         -0.99125        0.51843        1.69617
