37
2msa1ma1eda_425.log	Energy: -1013353.9809936
S         -0.89259       -2.28865        0.03472
O         -0.85095       -3.72603        0.19335
O         -0.02088       -1.66524        1.18874
O         -2.21944       -1.64432        0.03264
H         -2.92083       -0.11687        0.29237
C         -0.05062       -1.80590       -1.45213
H          0.99320       -2.11077       -1.35690
H         -0.54964       -2.31537       -2.27777
H         -0.13108       -0.71910       -1.54278
S         -0.29864        1.86260        0.28660
O         -1.48098        2.54079        0.90197
O         -0.62583        1.30088       -1.04197
O          0.28215        0.84095        1.21341
H          0.03186       -0.64061        1.16155
C          0.96745        3.08642        0.08058
H          0.57570        3.86426       -0.57560
H          1.20783        3.49261        1.06336
H          1.82512        2.57426       -0.37272
N         -3.42587        0.79524        0.30105
H         -4.21331        0.72177        0.94096
C         -3.84653        1.13664       -1.07919
H         -4.38083        2.08647       -1.06858
H         -2.93637        1.22878       -1.67188
H         -4.48282        0.34423       -1.47258
H         -2.74262        1.52602        0.65350
H          4.98277       -0.10088       -0.78503
H          4.66090        1.38342        0.12352
H          4.20055       -0.48338        1.57087
H          2.65339        0.27621        1.14707
H          3.67390       -2.23819        0.06625
H          2.24064       -1.93659        0.80093
H          3.64183        1.31174       -2.15641
H          2.60764        0.18358       -1.57195
C          4.18154        0.51116       -0.33626
C          3.49061       -0.30544        0.74940
N          3.19532        0.97196       -1.31168
N          2.94405       -1.54265        0.18367
