32
2msa2ma_154.log	Energy: -953956.2561419
S          2.77954       -0.29234        0.33378
O          4.20384       -0.47440        0.10207
O          1.95215       -0.40197       -0.93565
O          2.40532        0.98601        1.01884
H          1.40273        1.78055        0.07838
C          2.20728       -1.60447        1.39612
H          2.42904       -2.55400        0.90758
H          2.75397       -1.52366        2.33604
H          1.13455       -1.48604        1.55862
S         -1.32666       -0.86601       -0.49804
O         -1.44584        0.53700       -0.95502
O         -1.14245       -1.04376        0.93688
O         -0.19413       -1.58240       -1.30338
H          0.74003       -1.13273       -1.12899
C         -2.75078       -1.75524       -1.05198
H         -3.60869       -1.26323       -0.57838
H         -2.80101       -1.67682       -2.13780
H         -2.64110       -2.79162       -0.73348
N          0.79157        2.19775       -0.69100
H          1.30429        2.01557       -1.55365
C          0.51075        3.63106       -0.47976
H         -0.10718        4.01456       -1.29187
H         -0.01650        3.74457        0.46691
H          1.45190        4.17863       -0.43487
H         -0.07360        1.62489       -0.74331
N         -4.40176        0.66335        0.39983
H         -3.68094        1.19428       -0.08041
C         -4.13599        0.62056        1.83893
H         -4.12369        1.60486        2.32916
H         -4.89833        0.00760        2.32789
H         -3.16797        0.14171        2.00678
H         -5.29082        1.11151        0.20789
