43
2msa1eda1tma_181.log	Energy: -1062672.3893544
S         -0.41143       -1.41918        0.81280
O         -1.24906       -2.56087        0.46069
O         -0.01290       -0.60035       -0.40544
O          0.82840       -1.76686        1.57183
H          2.13420       -1.03561        0.97189
C         -1.34829       -0.30959        1.83870
H         -2.21600        0.02008        1.25434
H         -1.65436       -0.86819        2.72416
H         -0.70223        0.52676        2.11266
S          1.24930        2.34937        0.10353
O          2.40370        1.85278       -0.65451
O          1.24976        2.04939        1.53244
O         -0.08608        1.87585       -0.56500
H         -0.14211        0.83204       -0.51013
C          1.10927        4.09951       -0.14942
H          2.00411        4.55343        0.27703
H          1.04992        4.28813       -1.22081
H          0.21468        4.44977        0.36459
H          4.61610       -1.52588       -0.60862
H          3.98077       -2.57082        0.69702
H          3.34454       -3.34578       -1.61864
H          1.95419       -3.03765       -0.57610
H          2.29043       -1.93709       -3.02674
H          1.37503       -1.24711       -1.84405
H          3.60026       -0.21816        1.16184
H          2.76759       -0.02680       -0.24276
C          3.71274       -1.88756       -0.11233
C          2.77649       -2.55526       -1.11928
N          3.02315       -0.71450        0.48612
N          2.30991       -1.56913       -2.08548
N         -3.79526        0.06338       -0.37801
C         -4.73768        1.16565       -0.40101
H         -5.19814        1.28399        0.58488
H         -4.21551        2.09504       -0.64864
H         -5.54650        1.01639       -1.14317
C         -3.12476       -0.08454       -1.65992
H         -2.59713        0.84129       -1.90893
H         -2.38924       -0.89011       -1.60074
H         -3.83672       -0.31145       -2.47728
C         -4.43398       -1.18002        0.02402
H         -3.68151       -1.97070        0.09065
H         -4.89421       -1.05567        1.00973
H         -5.22196       -1.49578       -0.68655
