44
2msa2tma_27.log	Energy: -1052601.1989793
S          1.32661       -1.59217       -0.87932
O         -0.09025       -1.38766       -1.30793
O          1.45113       -2.15316        0.47863
O          2.13792       -0.35386       -1.06065
C          1.99263       -2.78967       -2.02002
H          1.41423       -3.70845       -1.92101
H          1.90371       -2.38324       -3.02753
H          3.03777       -2.96384       -1.76346
S         -0.97702        2.00851       -0.93489
O         -0.72833        3.32339       -1.49610
O         -0.19351        1.59856        0.23619
O         -0.79961        0.94832       -2.08344
H         -0.50778        0.03577       -1.74040
C         -2.69623        1.85788       -0.51962
H         -2.90879        2.60579        0.24603
H         -3.27298        2.06259       -1.42209
H         -2.87203        0.84002       -0.14325
N         -3.03032       -1.06862        0.92639
C         -1.85995       -1.00923        1.78658
H         -0.95582       -1.11040        1.18284
H         -1.83041       -0.04061        2.29799
H         -1.86241       -1.80928        2.55176
C         -4.25648       -0.93223        1.68880
H         -4.25408        0.02004        2.23012
H         -5.11737       -0.93933        1.01289
H         -4.39074       -1.74609        2.42758
C         -3.03020       -2.27977        0.12022
H         -3.87630       -2.26052       -0.57411
H         -2.10390       -2.32935       -0.45666
H         -3.11240       -3.19340        0.74005
N          2.47276        0.84676        1.32840
C          3.76965        0.14047        1.47155
H          3.57126       -0.93169        1.46263
H          4.40362        0.39885        0.62357
H          4.24144        0.44301        2.40915
C          2.64028        2.31689        1.23433
H          3.30069        2.53918        0.39552
H          1.66150        2.75912        1.05359
H          3.07636        2.68748        2.16509
C          1.52865        0.45135        2.40611
H          0.59122        0.98195        2.25268
H          1.36025       -0.62308        2.32116
H          1.97413        0.70639        3.37078
H          2.08944        0.51183        0.40759
