35
2msa1ma1dma_178.log	Energy: -978622.5617780
S         -2.36927       -1.40728       -0.01337
O         -3.56086       -2.21079        0.25472
O         -1.87128       -0.60058        1.13527
O         -2.49410       -0.52799       -1.23254
H         -2.00450        0.89942       -0.83781
C         -1.04485       -2.54396       -0.41314
H         -0.91756       -3.22045        0.43367
H         -1.33578       -3.10413       -1.30273
H         -0.13890       -1.96154       -0.59165
S          1.67533        0.65809        0.68597
O          0.85925        1.88492        0.59804
O          3.13032        0.93496        0.90833
O          1.50093       -0.23597       -0.51062
H          2.98493       -0.47261       -1.26431
C          1.10002       -0.26023        2.09229
H          1.24047        0.36563        2.97420
H          0.04041       -0.48544        1.92644
H          1.69228       -1.17264        2.17061
N          4.03377       -0.36384       -1.19766
H          4.40510        0.08894       -2.02902
C          4.70165       -1.64490       -0.88590
H          5.76339       -1.47438       -0.70988
H          4.24227       -2.04997        0.01526
H          4.56485       -2.34380       -1.71066
H          4.04496        0.29396       -0.37401
N         -1.69143        1.87576       -0.52646
C         -2.65919        2.38086        0.46782
C         -1.51808        2.73848       -1.70658
H         -0.77117        1.75551       -0.06410
H         -3.63276        2.49853       -0.01138
H         -2.72772        1.63658        1.26161
H         -2.31347        3.33923        0.86099
H         -2.47612        2.84438       -2.21842
H         -1.14853        3.71826       -1.39739
H         -0.79683        2.27009       -2.37662
