37
2msa1ma1eda_58.log	Energy: -1013373.8774803
S         -2.45684       -1.09796       -0.27210
O         -3.87993       -1.26088       -0.54554
O         -2.09341       -1.12362        1.17436
O         -1.88254        0.14595       -0.91913
H         -0.48424        0.74352       -1.40184
C         -1.57489       -2.45253       -1.02638
H         -1.78655       -2.43884       -2.09628
H         -0.50856       -2.32938       -0.82301
H         -1.94891       -3.37392       -0.57862
S          2.48933       -0.70289       -0.13756
O          2.50407       -0.17570       -1.53768
O          1.50134       -1.77016        0.07805
O          2.34532        0.41180        0.85108
H          0.78855        0.37965        1.64183
C          4.11158       -1.39535        0.11691
H          4.25537       -2.18721       -0.61838
H          4.84977       -0.60463       -0.01644
H          4.15243       -1.79869        1.12885
N         -0.16919        0.53924        2.01696
H         -0.51664        1.42991        1.60633
C         -0.18423        0.55923        3.49087
H         -1.20561        0.71748        3.83765
H          0.17650       -0.39934        3.86327
H          0.46223        1.35808        3.85588
H         -0.82040       -0.20547        1.65131
H         -1.17664        3.59520       -1.54061
H         -0.20875        4.28370       -0.23641
H          1.30642        3.13539       -1.67511
H          1.20225        2.19328       -0.18386
H          0.00480        1.53102       -2.78323
H          1.15926        0.68265       -1.86783
H         -2.04365        3.31340        0.78599
H         -1.90513        1.89203       -0.02347
C         -0.58342        3.34143       -0.64766
C          0.63852        2.53014       -1.05743
N         -1.37268        2.66666        0.38499
N          0.30236        1.30541       -1.83600
