41
2msa1dma1tma_34.log	Energy: -1027943.7854474
S          0.49801       -1.94700       -0.12284
O          1.24963       -3.13246        0.22736
O          0.61957       -0.93883        1.08604
O         -0.93375       -2.11699       -0.44660
H         -2.35335       -1.25296       -0.12214
C          1.26827       -1.09884       -1.47207
H          2.29097       -0.84955       -1.16160
H          1.25024       -1.77963       -2.32435
H          0.69890       -0.18660       -1.66939
S         -1.29214        1.91096       -0.16123
O         -2.71318        1.76508       -0.59080
O         -0.30662        1.75943       -1.23562
O         -1.02847        0.99890        1.00850
H         -0.01869       -0.14926        1.00721
C         -1.13691        3.56305        0.48697
H         -1.34768        4.26240       -0.32238
H         -1.85264        3.68458        1.29973
H         -0.11509        3.68718        0.84654
N         -3.28604       -0.81514        0.03238
C         -3.60671       -0.89807        1.47303
C         -4.27058       -1.45740       -0.85995
H         -3.16267        0.19510       -0.23316
H         -3.63804       -1.94597        1.77532
H         -2.82391       -0.36848        2.01588
H         -4.57338       -0.42500        1.65301
H         -4.33684       -2.52025       -0.62295
H         -5.24360       -0.98251       -0.72537
H         -3.93953       -1.33141       -1.89063
N          3.80724        0.32936       -0.02625
C          5.02067        0.67231       -0.74446
H          5.57873       -0.23747       -0.98580
H          4.76840        1.17886       -1.68113
H          5.68321        1.33909       -0.15900
C          2.99931        1.50794        0.24151
H          2.71291        1.98765       -0.69888
H          2.08289        1.21361        0.75869
H          3.53412        2.24792        0.86794
C          4.09986       -0.40048        1.19698
H          3.16519       -0.68497        1.68653
H          4.65152       -1.31479        0.95940
H          4.70494        0.19759        1.90553
