32
2msa1a1dma_162.log	Energy: -953948.2110752
S         -1.94198        0.24782        0.53434
O         -1.39622        1.58874        0.63853
O         -1.48639       -0.58688       -0.59642
O         -3.50833        0.30522        0.46115
H         -3.86791       -0.13589       -0.42353
C         -1.65185       -0.62257        2.05037
H         -0.56983       -0.74272        2.13682
H         -2.06008       -0.02187        2.86313
H         -2.14654       -1.59153        1.98707
S          1.99166       -1.56409       -0.01740
O          2.61267       -2.86419        0.13232
O          1.35844       -0.92958        1.13810
O          0.89639       -1.68476       -1.17662
H          0.07114       -1.19941       -0.92803
C          3.15372       -0.42764       -0.72697
H          3.96701       -0.32243       -0.00698
H          3.52090       -0.86101       -1.65748
H          2.63586        0.52878       -0.88186
N         -4.26533       -0.80685       -1.74882
H         -4.93074       -1.56991       -1.67528
H         -3.37778       -1.18223       -2.07709
H         -4.60968       -0.15280       -2.44489
N          1.45286        2.32391       -0.39590
C          1.52902        3.50711       -1.23620
C          2.06421        2.51914        0.91041
H          0.47974        2.06709       -0.25703
H          2.57822        3.72597       -1.46681
H          1.00988        3.32412       -2.18103
H          1.09371        4.40736       -0.76842
H          3.14157        2.68640        0.78912
H          1.64973        3.37990        1.46190
H          1.92391        1.61639        1.51051
