37
2msa1ma1eda_508.log	Energy: -1013349.2169104
S          0.99874        1.62207       -0.54730
O          0.73488        0.35340       -1.31217
O          1.07407        1.40922        0.90521
O          0.01274        2.68604       -0.91167
H         -1.23274        2.64195        0.14248
C          2.58990        2.15135       -1.13478
H          3.29906        1.33725       -0.96165
H          2.50126        2.36065       -2.20070
H          2.86864        3.04860       -0.58194
S         -2.16429       -1.24553       -0.24589
O         -2.85254       -0.12392        0.42603
O         -1.27571       -2.04757        0.57591
O         -1.47125       -0.72923       -1.54109
H         -0.53210       -0.26437       -1.39650
C         -3.42125       -2.27616       -0.95988
H         -4.01506       -2.66960       -0.13448
H         -4.03346       -1.66846       -1.62533
H         -2.92853       -3.08249       -1.50248
N         -2.00368        2.46117        0.84917
H         -2.79102        3.07032        0.63850
C         -1.50581        2.64991        2.23443
H         -2.27564        2.34233        2.94183
H         -0.61005        2.03907        2.34316
H         -1.25092        3.69905        2.38280
H         -2.31229        1.47664        0.69914
H          4.19210       -1.64271        1.19721
H          3.27578       -0.14145        1.11526
H          1.98846       -1.72495        2.39994
H          1.16222       -1.37819        0.88517
H          2.55022       -3.85949        1.53239
H          1.04140       -3.62609        0.93652
H          3.54911       -2.16101       -0.98366
H          2.54026       -0.90636       -1.09784
C          3.29236       -1.18156        0.76906
C          2.03963       -1.87315        1.30861
N          3.42624       -1.19720       -0.68691
N          1.99395       -3.28128        0.91184
