37
2msa1ma1eda_117.log	Energy: -1013362.3001691
S         -1.54245       -1.67540        0.26159
O         -0.64158       -2.67200       -0.32617
O         -2.51439       -1.04415       -0.64611
O         -0.75886       -0.61186        1.02565
C         -2.48546       -2.50346        1.53171
H         -3.07022       -3.28762        1.04983
H         -1.78736       -2.93193        2.25097
H         -3.13931       -1.77485        2.01109
S          2.41630       -0.61492       -0.41617
O          3.73234       -0.01552       -0.26228
O          1.46581        0.00920       -1.33357
O          1.78870       -0.66476        1.03939
H          0.77382       -0.75413        1.02106
C          2.56336       -2.32777       -0.85359
H          2.99897       -2.36910       -1.85251
H          3.21544       -2.80894       -0.12487
H          1.55564       -2.75042       -0.84018
N         -2.89823        1.71939       -1.55483
H         -3.18243        2.09907       -2.45140
C         -3.90029        2.00219       -0.52264
H         -4.89226        1.59330       -0.74870
H         -3.56563        1.55509        0.41764
H         -3.99218        3.08253       -0.37817
H         -2.80915        0.70592       -1.65089
H         -0.38483        3.85195        0.31172
H         -1.01307        2.73453        1.54520
H          1.28676        3.49709        2.14783
H          1.27245        1.76374        1.82158
H          2.54362        3.79906        0.21799
H          2.88073        2.18789        0.32097
H         -1.29783        1.97715       -0.85995
H          0.41198        1.78180       -0.84402
C         -0.24714        2.87243        0.77783
C          1.16465        2.74808        1.35522
N         -0.43494        1.83883       -0.26144
N          2.13604        2.87551        0.27724
H         -0.55377        0.90077        0.17486
