35
2msa1a1tma_72.log	Energy: -978617.2928947
S          1.83218       -1.36868       -0.15858
O          2.81494       -0.56173       -0.90950
O          1.16749       -2.43837       -0.91821
O          0.82556       -0.48608        0.54103
C          2.73073       -2.16485        1.16741
H          3.22091       -1.39762        1.76771
H          2.02338       -2.73555        1.76973
H          3.47058       -2.82825        0.71830
S         -2.47388       -0.34679       -0.07598
O         -2.31530        0.02132        1.32368
O         -1.95131        0.51769       -1.11739
O         -4.08249       -0.45598       -0.32930
H         -4.52516       -0.24100        0.50372
C         -1.98358       -2.01743       -0.38683
H         -0.88946       -2.05308       -0.39560
H         -2.40232       -2.64373        0.40053
H         -2.37934       -2.29263       -1.36461
N          0.22509        1.36442        2.76286
H         -0.77603        1.18736        2.77754
H          0.54803        1.37788        3.72444
H          0.62838        0.55062        2.29837
N          0.88553        2.02799       -0.47599
C          0.94572        1.84199       -1.94847
H          1.72916        1.11457       -2.16510
H         -0.01910        1.46118       -2.28280
H          1.16221        2.80530       -2.41662
C         -0.19479        2.96112       -0.07128
H         -1.13633        2.59289       -0.47586
H         -0.22971        2.97412        1.01929
H          0.03387        3.95211       -0.47186
C          2.19727        2.44676        0.08006
H          2.08742        2.52794        1.16230
H          2.93045        1.68113       -0.17677
H          2.47173        3.41200       -0.35248
H          0.70110        1.07509       -0.06309
