40
2msa1dma1eda_532.log	Energy: -1038008.8845379
S          0.80862        2.30380        0.08707
O          1.62352        3.41973       -0.35248
O          1.37136        1.36919        1.06675
O          0.39194        1.48267       -1.19893
H          0.23178        0.49865       -0.98135
C         -0.74479        2.90683        0.69847
H         -0.54273        3.41276        1.64377
H         -1.12952        3.61424       -0.03711
H         -1.45060        2.07758        0.83322
S         -0.04076       -1.98785        0.26699
O         -0.95066       -3.08620       -0.05319
O          0.10263       -1.00131       -0.85543
O          1.32382       -2.43635        0.70767
H          2.48822       -1.69990        0.07576
C         -0.72309       -1.09902        1.65113
H         -1.70354       -0.71970        1.35795
H         -0.81976       -1.80713        2.47480
H         -0.04259       -0.28501        1.90357
N          3.40791       -1.29371       -0.32589
C          4.03242       -0.41834        0.69641
C          3.14938       -0.61652       -1.62036
H          3.99848       -2.10862       -0.48805
H          3.32672        0.38157        0.92680
H          4.22236       -1.00947        1.59257
H          4.96589       -0.00760        0.30691
H          2.58452        0.29423       -1.43037
H          4.09969       -0.37411       -2.09958
H          2.55030       -1.27558       -2.24770
H         -5.04427        0.83185       -0.75496
H         -3.60321        1.74658       -1.22690
H         -3.56536       -0.53051       -2.17292
H         -2.21226       -0.26824       -1.07803
H         -4.57097       -1.88391       -0.50475
H         -2.97884       -2.25174       -0.31501
H         -4.12713        1.88630        1.18283
H         -3.79906        0.28430        1.29464
C         -3.95238        0.90574       -0.61621
C         -3.29933       -0.38005       -1.11617
N         -3.57668        1.13470        0.78037
N         -3.66524       -1.50318       -0.25389
