22
2msa1a_35.log	Energy: -869129.8925629
S         -1.59483        0.70957       -0.03221
O         -2.91241        1.20778       -0.36965
O         -0.45968        1.62715        0.00436
O         -1.26898       -0.44431       -1.09824
H         -0.29642       -0.58520       -1.15107
C         -1.66661       -0.18319        1.50067
H         -1.92131        0.54362        2.27350
H         -2.44910       -0.94116        1.39376
H         -0.68232       -0.61494        1.68935
S          2.27101       -0.30029        0.04636
O          1.80175       -0.58342        1.38600
O          1.46908       -0.77745       -1.08370
O          3.75284       -0.91848       -0.15748
H          3.67202       -1.82750       -0.48366
C          2.66640        1.41374       -0.13587
H          1.71665        1.94099       -0.02547
H          3.37049        1.68244        0.65138
H          3.09289        1.56263       -1.12703
N         -4.17941       -1.66545       -0.01611
H         -5.07822       -2.11918        0.10205
H         -3.70518       -2.10856       -0.79607
H         -4.34210       -0.69700       -0.27963
