37
2msa1ma1eda_473.log	Energy: -1013351.7413622
S          2.01828        1.30943        0.44966
O          2.34171        1.60761       -0.96159
O          2.79589        0.19239        1.02457
O          0.54181        1.10787        0.65811
C          2.43108        2.77103        1.39113
H          3.49919        2.95253        1.26900
H          1.85468        3.60977        0.99996
H          2.18958        2.58610        2.43792
S         -2.86406        0.51450       -0.38861
O         -2.15750       -0.24319       -1.41475
O         -3.03051       -0.04478        0.93813
O         -4.35313        0.80131       -0.97643
H         -4.40604        0.40415       -1.85755
C         -2.20346        2.15042       -0.26508
H         -1.18271        2.03201        0.12029
H         -2.19618        2.59047       -1.26205
H         -2.83486        2.71727        0.41897
N          2.47633       -1.18633       -2.09984
H          2.41655       -1.38611       -3.09301
C          3.68326       -1.78578       -1.51601
H          4.60546       -1.50467       -2.03967
H          3.76182       -1.44747       -0.48000
H          3.59685       -2.87684       -1.52863
H          2.51837       -0.16894       -1.98932
H          0.94124       -3.30173        0.52658
H          1.58031       -1.81939        1.30070
H         -0.23393       -2.85926        2.70728
H         -0.68356       -1.25777        2.12062
H         -1.89020       -3.76132        1.37370
H         -2.48803       -2.22423        1.27557
H          1.08195       -1.50349       -1.09176
H         -0.57706       -1.80460       -0.68926
C          0.69900       -2.28723        0.85604
C         -0.49397       -2.28954        1.80711
N          0.33215       -1.49076       -0.33577
N         -1.67459       -2.80712        1.11671
H          0.24015       -0.49318       -0.04738
