28
2msa1dma_69.log	Energy: -918452.5631312
S          2.01774       -1.04453        0.05640
O          2.84494       -2.22331        0.14441
O          0.96722       -0.83150        1.07342
O          1.31521       -1.03961       -1.36978
H          0.39631       -0.67183       -1.31656
C          3.02065        0.41401        0.01884
H          3.51836        0.48180        0.98723
H          3.75115        0.28892       -0.78083
H          2.35401        1.26804       -0.15899
S         -2.21802       -0.67380       -0.15240
O         -3.32971       -1.36687       -0.75286
O         -1.18367       -0.08431       -1.02350
O         -1.51249       -1.65544        0.86581
H         -0.55109       -1.40928        1.00042
C         -2.82253        0.63216        0.89172
H         -3.31735        1.36000        0.24749
H         -3.53064        0.19762        1.59723
H         -1.97713        1.08421        1.41101
N          0.46871        2.42513       -0.18382
C          0.28151        3.65415       -0.93783
C          0.34285        2.61079        1.25189
H         -0.18924        1.71982       -0.50263
H          1.07489        4.36482       -0.68234
H          0.35038        3.44401       -2.00798
H         -0.68582        4.14774       -0.74062
H          1.14666        3.26406        1.60959
H         -0.61274        3.07471        1.55735
H          0.44900        1.64455        1.75456
