37
2msa1ma1eda_264.log	Energy: -1013360.0992172
S          1.36764        1.88987        0.20899
O          1.41295        0.87812        1.28412
O          0.64005        3.11243        0.50502
O          0.85504        1.22913       -1.11252
H         -0.04451        0.69255       -1.00107
C          3.04131        2.23781       -0.25770
H          3.51619        2.71340        0.60102
H          3.51436        1.28243       -0.49757
H          3.02529        2.91151       -1.11417
S         -2.56812        0.14968       -0.44611
O         -3.57624       -0.46533       -1.29764
O         -1.15334       -0.17373       -0.91081
O         -2.67787       -0.16105        1.00544
H         -1.28113       -0.89360        1.60923
C         -2.70075        1.92288       -0.59420
H         -2.60006        2.18029       -1.64897
H         -3.68503        2.20933       -0.22274
H         -1.91327        2.39440       -0.00308
N         -0.31841       -1.23263        1.84891
H         -0.02058       -1.88137        1.07009
C         -0.25350       -1.86758        3.17626
H          0.76881       -2.18836        3.37935
H         -0.56967       -1.15412        3.93716
H         -0.91800       -2.73181        3.19458
H          0.29063       -0.40197        1.77979
H          1.70489       -1.13515       -1.98684
H          3.06467       -2.22510       -2.19886
H          1.14803       -3.58591       -2.19821
H          1.95060       -3.87668       -0.64914
H         -0.35489       -2.06541       -0.98468
H         -0.43013       -3.59083       -0.41625
H          2.28535       -0.88726        0.30411
H          3.49966       -1.98927        0.17314
C          2.28957       -1.91660       -1.48817
C          1.39215       -3.13000       -1.22721
N          2.94670       -1.31004       -0.33904
N          0.17727       -2.77809       -0.47787
