35
2msa1ma1dma_158.log	Energy: -978623.0468930
S          2.46432       -0.26805        0.42897
O          3.05480        0.66117       -0.54304
O          2.26187       -1.65297       -0.01140
O          1.15987        0.32020        0.97698
H         -0.04879       -0.54510        0.86513
C          3.54385       -0.31413        1.84818
H          4.50246       -0.71538        1.51774
H          3.66179        0.70036        2.22870
H          3.09525       -0.96332        2.60007
S         -1.39755       -1.41717       -0.64785
O         -2.83074       -1.65048       -0.60473
O         -0.95578       -1.03475        0.81073
O         -0.89642       -0.41250       -1.59805
H         -0.36011        1.24084       -1.32063
C         -0.53761       -2.93237       -0.97549
H         -0.88651       -3.67488       -0.25800
H         -0.78326       -3.22842       -1.99585
H          0.53061       -2.73272       -0.85767
N         -3.47109        1.16075        0.88178
H         -4.36839        1.60535        0.71741
C         -3.25770        0.95888        2.31544
H         -4.04459        0.37499        2.81360
H         -2.30939        0.43598        2.45878
H         -3.18630        1.93015        2.81550
H         -3.50045        0.26199        0.40498
N          0.09212        2.06071       -0.87573
C         -0.95413        2.97151       -0.35608
C          1.05434        2.68291       -1.81246
H          0.60665        1.61138       -0.08680
H         -1.43151        3.47244       -1.20053
H         -1.70760        2.38452        0.18404
H         -0.48633        3.71265        0.29412
H          0.51938        3.00652       -2.70660
H          1.51757        3.54122       -1.32392
H          1.82266        1.94857       -2.05180
