32
2msa1a1dma_29.log	Energy: -953969.3521014
S         -2.51198       -0.11255       -0.01717
O         -1.77889        0.87674       -0.80277
O         -2.85934        0.26655        1.35044
O         -1.77542       -1.49924       -0.04245
H         -0.79832       -1.43593        0.27547
C         -3.99192       -0.57257       -0.88527
H         -4.62566        0.31406       -0.92001
H         -3.71617       -0.89433       -1.88899
H         -4.48055       -1.37499       -0.33328
S          1.79503       -1.30841       -0.07131
O          1.42594       -1.30702       -1.48950
O          0.59423       -1.33056        0.84193
O          2.71794       -0.20529        0.31932
H          0.64828        1.93590        0.49318
C          2.67291       -2.81967        0.27871
H          2.02316       -3.65436        0.01471
H          3.57889       -2.82965       -0.32767
H          2.91633       -2.83892        1.34092
N         -0.06261        1.41355        2.03333
H          0.23219        1.79902        2.92454
H          0.24643        0.43977        1.99729
H         -1.08120        1.38380        2.02691
N          1.39030        2.11305       -0.24617
C          2.08898        3.36180        0.10404
C          0.84498        2.08004       -1.62038
H          2.03096        1.29591       -0.11192
H          1.39213        4.19873        0.03042
H          2.45996        3.28204        1.12644
H          2.92609        3.51775       -0.57848
H          0.06138        2.83249       -1.71427
H          1.65414        2.27833       -2.32607
H          0.42409        1.09255       -1.80194
