42
2msa2eda_263.log	Energy: -1072754.6984882
S         -1.68412       -1.73835       -0.58561
O         -1.24158       -1.62471       -1.98029
O         -2.98531       -1.13875       -0.26414
O         -0.62665       -1.20845        0.38234
C         -1.77882       -3.48092       -0.20843
H         -2.06264       -3.59465        0.83781
H         -2.53342       -3.91803       -0.86298
H         -0.80286       -3.92840       -0.39914
S          2.65511       -0.41666        0.85241
O          1.72343        0.59900        1.34510
O          3.66513       -0.01331       -0.10985
O          1.84398       -1.63785        0.28419
H          0.82209       -1.47757        0.29008
C          3.47718       -1.15973        2.24529
H          4.11415       -0.39577        2.69225
H          2.72197       -1.50040        2.95315
H          4.07692       -1.99306        1.87955
H         -2.35545        2.96245        0.41708
H         -2.58730        1.38136       -0.37394
H         -4.13879        1.61309        1.55417
H         -2.98564        0.30185        1.78240
H         -2.91506        2.90724        3.12742
H         -2.76220        1.41349        3.77331
H         -0.22273        2.09676        0.08134
H         -0.58727        1.81798        1.72763
C         -2.26565        1.87848        0.54249
C         -3.07936        1.38987        1.73313
N         -0.83698        1.56778        0.76707
N         -2.54249        1.97841        2.96236
H         -0.66454        0.54837        0.66146
H          1.97741        2.70295       -2.75869
H          2.36407        2.05168       -1.15262
H          1.78466        0.24920       -2.75451
H          0.69340        0.29469       -1.38350
H          0.03667        1.12670       -4.08354
H         -0.78062        0.16989       -3.02941
H          0.80451        3.94231       -1.06972
H         -0.27477        3.04401       -1.93436
C          1.55761        2.19796       -1.87563
C          0.99062        0.84189       -2.28170
N          0.48651        2.99700       -1.25686
N         -0.20701        1.00698       -3.10595
