35
2msa1ma1dma_175.log	Energy: -978621.9143576
S          3.37829       -0.59538        0.03120
O          2.90909       -1.65010       -0.87600
O          2.48492       -0.33507        1.18863
O          3.70340        0.69513       -0.67819
H          2.46163        1.63231       -0.62785
C          4.94193       -1.14276        0.70267
H          4.76952       -2.08499        1.22370
H          5.63722       -1.28542       -0.12489
H          5.31092       -0.38291        1.39179
S         -1.51018       -0.10966       -0.42633
O         -0.80641        1.06369       -0.99631
O         -2.56187       -0.66070       -1.30595
O         -2.09492        0.21701        0.93510
H         -3.54508        0.09237        0.91661
C         -0.29624       -1.37001       -0.13698
H          0.44237       -1.00193        0.57965
H         -0.81164       -2.25069        0.24727
H          0.20422       -1.59261       -1.08004
N          1.59212        2.24808       -0.48238
H          1.63385        3.03908       -1.12027
C          1.51296        2.67696        0.93254
H          0.56680        3.18998        1.10690
H          1.58178        1.77532        1.54205
H          2.35322        3.33377        1.15932
H          0.74034        1.69480       -0.72197
N         -4.64115       -0.03460        0.84385
C         -4.91556       -1.47594        0.63701
C         -5.13020        0.82473       -0.26045
H         -5.04205        0.27305        1.72815
H         -4.38527       -1.77795       -0.26707
H         -4.52730       -2.03153        1.49107
H         -5.98984       -1.64188        0.53399
H         -4.60009        0.52259       -1.16485
H         -6.20878        0.70239       -0.37860
H         -4.88942        1.86292       -0.03021
