37
2msa1ma1eda_428.log	Energy: -1013352.1744692
S          0.57820       -1.80429        0.40619
O          1.87773       -2.42605        0.17958
O          0.26509       -0.74055       -0.62699
O          0.38814       -1.23686        1.77376
H          0.05904        0.33751        1.83710
C         -0.69401       -3.03774        0.21139
H         -0.60919       -3.45672       -0.79178
H         -0.52207       -3.80819        0.96351
H         -1.66345       -2.55907        0.36324
S         -2.81040        0.50479       -0.44561
O         -2.15920        1.73383        0.02255
O         -3.15570       -0.47927        0.57267
O         -1.96099       -0.15489       -1.58814
H         -1.03361       -0.44297       -1.21603
C         -4.25604        0.95248       -1.37228
H         -4.94807        1.41955       -0.67099
H         -3.96122        1.65313       -2.15262
H         -4.68755        0.04550       -1.79455
N          4.15657        1.12626       -2.06482
H          3.73451        0.99863       -2.97883
C          4.24221       -0.15698       -1.35899
H          4.83401       -0.92180       -1.87992
H          4.68871        0.00479       -0.37384
H          3.23924       -0.55973       -1.19669
H          5.08035        1.51464       -2.22176
H          1.15192        3.10766        2.08893
H          1.60892        1.71611        3.11820
H          3.21152        2.13155        1.22011
H          2.50722        0.51392        1.19364
H          2.53865        2.02065       -0.92092
H          1.24602        1.08881       -0.62792
H         -0.73514        1.64530        2.54878
H         -0.41875        1.68647        0.94332
C          1.28897        2.02451        2.11987
C          2.28125        1.58090        1.04938
N         -0.03384        1.39519        1.85474
N          1.76005        1.89392       -0.27333
