41
2msa1dma1tma_02.log	Energy: -1027959.1529912
S         -2.86202        0.33484       -0.00416
O         -2.78156        1.72481       -0.48796
O         -2.07215        0.07800        1.22574
O         -2.53732       -0.67774       -1.06076
C         -4.57697        0.04851        0.41179
H         -5.17296        0.18880       -0.49025
H         -4.67883       -0.97039        0.78668
H         -4.86483        0.76914        1.17761
S          2.61090       -0.64964        0.21501
O          1.93424       -1.79847        0.86672
O          3.09646        0.38862        1.13828
O          1.74973       -0.07993       -0.87798
C          4.04392       -1.32704       -0.60759
H          4.68774       -1.77152        0.15176
H          3.71175       -2.08196       -1.32050
H          4.56087       -0.51545       -1.12019
N         -0.56811       -2.27761       -0.16567
C         -1.25286       -3.07341        0.87210
C         -0.11797       -3.05156       -1.33728
H         -1.23512       -1.53367       -0.49515
H         -0.55630       -3.80750        1.28066
H         -1.58537       -2.38419        1.64843
H         -2.11476       -3.57278        0.42603
H          0.56654       -3.83589       -1.01004
H         -0.98633       -3.48570       -1.83531
H          0.39802       -2.36967       -2.01348
H          0.27149       -1.84246        0.26197
N          0.95691        2.42052       -0.15958
C          0.36288        2.33380        1.20334
H         -0.53269        1.70956        1.16811
H          1.10583        1.88283        1.86231
H          0.10893        3.34285        1.53638
C          2.24734        3.15109       -0.14222
H          2.93107        2.61615        0.51723
H          2.65239        3.17305       -1.15496
H          2.07249        4.16963        0.21170
C          0.00985        2.99173       -1.15140
H          0.44842        2.88750       -2.14498
H         -0.94409        2.46227       -1.08875
H         -0.14313        4.04874       -0.92035
H          1.18287        1.43615       -0.45655
