42
2msa2eda_211.log	Energy: -1072755.9363385
S         -2.72609       -0.37605        0.38777
O         -2.43116       -0.63713        1.80477
O         -1.72756       -1.02883       -0.53804
O         -2.89120        1.05593        0.03846
C         -4.27963       -1.16495        0.01241
H         -4.17868       -2.22868        0.22788
H         -5.04390       -0.71318        0.64504
H         -4.50114       -1.00108       -1.04200
S          1.60092       -1.92279       -0.74586
O          2.44288       -0.93391       -0.06602
O          1.23203       -1.65062       -2.12764
O          0.33908       -2.22410        0.13342
H         -0.53685       -1.71028       -0.14198
C          2.42431       -3.49544       -0.64587
H          3.36690       -3.39690       -1.18508
H          2.60297       -3.72512        0.40422
H          1.78603       -4.24644       -1.11019
H          1.26764        1.20455       -1.46797
H         -0.32652        0.48937       -1.74414
H          0.25811        2.10728       -3.55326
H         -1.16629        2.63905       -2.65217
H          1.53547        3.72973       -2.31317
H          0.16071        4.53100       -2.69645
H          0.10349        1.26961        0.59809
H          0.12752        2.84558       -0.06024
C          0.19839        1.42060       -1.52925
C         -0.08463        2.48358       -2.57996
N         -0.24041        1.90165       -0.20084
N          0.53056        3.74720       -2.17240
H         -1.27477        1.88602       -0.14130
H          3.10347        0.57566        2.68445
H          2.93240        2.26483        3.17200
H          1.07443        0.83188        3.97125
H          0.52794        2.18602        2.96902
H          0.94202       -0.49123        1.81935
H         -0.52262        0.05565        2.31043
H          3.47140        2.41296        0.96212
H          2.56844        1.13470        0.51782
C          2.51448        1.49193        2.51904
C          1.07317        1.23480        2.94828
N          2.58461        1.95005        1.12819
N          0.40171        0.35205        1.99480
