35
2msa1ma1dma_263.log	Energy: -978616.8381574
S          2.81817       -0.11458        0.51500
O          3.77899       -0.61764        1.48423
O          1.37843       -0.40946        0.88820
O          3.03997       -0.57641       -0.89230
H          1.73836       -1.19633       -1.52284
C          2.94035        1.66500        0.46640
H          2.75831        2.04503        1.47234
H          3.95218        1.91313        0.14472
H          2.20195        2.05413       -0.23739
S         -1.03569        1.38702       -0.50867
O         -1.25670        0.08071       -1.16725
O         -0.16574        2.31138       -1.22259
O         -0.53412        1.15699        0.95427
H          0.30433        0.52660        0.96670
C         -2.61825        2.10784       -0.19192
H         -3.07355        2.30426       -1.16333
H         -3.19467        1.37478        0.38686
H         -2.46112        3.03715        0.35562
N          0.81095       -1.63015       -1.83109
H          0.06908       -0.92002       -1.66389
C          0.53135       -2.83962       -1.02216
H         -0.44359       -3.24681       -1.29115
H          1.31380       -3.57825       -1.19553
H          0.54231       -2.53553        0.02433
H          0.85149       -1.83438       -2.82678
N         -3.82344       -0.66953        1.14698
C         -2.67239       -1.39948        1.66438
C         -4.33269       -1.23986       -0.09237
H         -4.55857       -0.65793        1.84576
H         -1.86022       -1.34052        0.93467
H         -2.32058       -0.93471        2.58806
H         -2.88472       -2.46501        1.85898
H         -3.57531       -1.11568       -0.87345
H         -4.57430       -2.31407       -0.01437
H         -5.23436       -0.70498       -0.40436
