32
2msa1a1dma_48.log	Energy: -953969.7583950
S         -2.36487       -0.73083       -0.24279
O         -3.56622       -1.55450       -0.18417
O         -1.55194       -0.73132        1.02384
O         -2.61116        0.69432       -0.64787
H         -1.68538        1.71696        0.00013
C         -1.29467       -1.39182       -1.50919
H         -1.06529       -2.43006       -1.26465
H         -1.83864       -1.34469       -2.45324
H         -0.38191       -0.79402       -1.55248
S          2.32933       -0.24199       -0.25995
O          1.52224        0.64054       -1.12554
O          2.07992       -1.69384       -0.49799
O          2.20632        0.09737        1.19034
H          1.17496       -1.30746        2.08689
C          4.03767        0.03884       -0.69405
H          4.16291       -0.20673       -1.74884
H          4.26345        1.09032       -0.51501
H          4.66260       -0.60146       -0.07152
N          0.58838       -2.07431        1.72533
H         -0.35237       -1.64901        1.46304
H          0.50127       -2.84821        2.37539
H          1.08406       -2.32604        0.84394
N         -1.15321        2.56366        0.40801
C         -0.34194        3.17958       -0.67017
C         -0.36276        2.15639        1.59587
H         -1.88774        3.20899        0.69589
H          0.40788        2.44898       -0.98020
H         -1.00056        3.42148       -1.50487
H          0.13917        4.08407       -0.29214
H          0.44078        1.49147        1.27476
H          0.05623        3.04608        2.07122
H         -1.02202        1.62060        2.27818
