31
2msa1tma_11.log	Energy: -943129.1617360
S         -2.66825        0.54452        0.14248
O         -3.64255        1.58588        0.39967
O         -2.70547       -0.70482        0.89010
O         -1.22248        1.20304        0.34191
H         -0.55975        0.48300        0.58658
C         -2.67234        0.16002       -1.59541
H         -3.63008       -0.31541       -1.81137
H         -2.57619        1.09372       -2.14972
H         -1.83810       -0.51668       -1.79173
S          0.87239       -1.64184       -0.06021
O          2.30879       -1.92985       -0.18173
O          0.15927       -1.41657       -1.32580
O          0.68244       -0.44321        0.88204
H          1.73234        0.63300        0.47220
C          0.06291       -2.97524        0.79310
H          0.14099       -3.86491        0.16753
H          0.56342       -3.12641        1.74927
H         -0.97922       -2.68372        0.93674
N          2.35427        1.40312        0.06716
C          1.96624        2.66451        0.74040
H          0.90188        2.83636        0.57110
H          2.14972        2.56245        1.81037
H          2.55483        3.49105        0.33575
C          3.75926        1.00987        0.32854
H          3.91940        0.97680        1.40660
H          3.91135        0.01270       -0.08737
H          4.43288        1.73773       -0.12994
C          2.04813        1.43373       -1.38622
H          2.29351        0.46143       -1.81437
H          0.97982        1.61481       -1.50978
H          2.63167        2.22626       -1.86038
