41
2msa1dma1tma_17.log	Energy: -1027956.4022971
S         -1.87049        1.04119       -0.60658
O         -0.92737        2.06767       -1.09753
O         -1.83775        0.92184        0.88465
O         -1.73438       -0.28366       -1.26139
H         -0.86216       -1.27607        0.22834
C         -3.50743        1.62640       -1.02519
H         -3.66030        2.59247       -0.54349
H         -3.56400        1.72703       -2.10942
H         -4.23867        0.90000       -0.66906
S          2.23242       -0.65135       -0.63963
O          2.61799       -2.07069       -0.66043
O          3.29890        0.32793       -0.37420
O          1.07221       -0.43368        0.31847
H          0.96397        1.05843        0.76293
C          1.54236       -0.26205       -2.24170
H          2.34092       -0.33466       -2.98082
H          0.74375       -0.97300       -2.45408
H          1.12184        0.74401       -2.20152
N          0.85075        2.03300        1.18604
C          1.64699        3.00474        0.40719
C          1.21567        1.93664        2.60920
H         -0.15441        2.20898        1.07650
H          2.67234        2.63794        0.34848
H          1.21305        3.05668       -0.59046
H          1.60151        3.98349        0.88979
H          2.25206        1.60358        2.68104
H          1.09870        2.90816        3.09352
H          0.56153        1.20481        3.08396
N         -1.07600       -2.16854        0.71535
C         -0.42669       -3.23654       -0.08821
H         -0.84429       -3.19937       -1.09486
H          0.64874       -3.04635       -0.12932
H         -0.63771       -4.20357        0.37416
C         -0.51138       -2.08281        2.08385
H          0.56354       -1.93919        1.99496
H         -0.96094       -1.22020        2.57667
H         -0.75059       -3.00324        2.62161
C         -2.55138       -2.31107        0.74569
H         -2.96407       -1.44921        1.27033
H         -2.91916       -2.31454       -0.27887
H         -2.80548       -3.24201        1.25768
