37
2msa1ma1eda_61.log	Energy: -1013370.5788701
S         -3.13500        0.27466       -0.08845
O         -4.34084        0.36800       -0.90228
O         -2.72653        1.52852        0.60785
O         -1.94614       -0.28777       -0.81858
H         -1.08989        1.74257        0.34439
C         -3.48105       -0.89621        1.22452
H         -4.28748       -0.48631        1.83336
H         -3.79912       -1.83772        0.77380
H         -2.58101       -1.02925        1.82660
S          2.47533       -0.91640        0.00677
O          1.28956       -0.56525        0.84967
O          3.10995        0.25164       -0.62111
O          2.13421       -2.01132       -0.94929
H          0.51024       -2.24938       -1.07921
C          3.67753       -1.61521        1.12593
H          3.94315       -0.85316        1.85883
H          3.23503       -2.48285        1.61547
H          4.55120       -1.90632        0.54222
N         -0.50771       -2.49468       -0.95399
H         -1.08453       -1.60787       -0.93851
C         -0.66298       -3.20144        0.33591
H         -1.71620       -3.42264        0.51034
H         -0.08128       -4.12333        0.32255
H         -0.28150       -2.53748        1.11200
H         -0.81242       -3.06302       -1.74076
H          2.62223        2.29615        0.70834
H          2.42942        4.05086        0.61047
H          0.55219        2.83839        1.88459
H         -0.01354        3.85099        0.53775
H          0.10157        1.88942       -0.84822
H          0.38979        0.91003        0.45475
H          2.32600        3.80092       -1.65484
H          2.58066        2.17355       -1.46487
C          2.01373        3.09503        0.27432
C          0.58083        2.97241        0.80126
N          2.01279        2.96571       -1.18011
N         -0.05792        1.80272        0.16215
