37
2msa1ma1eda_229.log	Energy: -1013361.1109884
S          0.00835        1.96003       -0.57189
O         -0.67473        1.26636       -1.67661
O          1.46518        2.12505       -0.75066
O         -0.28795        1.31036        0.75979
C         -0.69228        3.59878       -0.46249
H         -0.21814        4.12105        0.36860
H         -0.49487        4.11122       -1.40435
H         -1.76554        3.50146       -0.29553
S         -2.73381       -1.13751        0.43748
O         -3.81151       -1.85364        1.08622
O         -1.43397       -1.81510        0.30486
O         -2.52892        0.22422        1.19646
H         -1.61899        0.65912        0.99520
C         -3.24228       -0.63806       -1.19077
H         -3.37878       -1.54838       -1.77587
H         -4.18556       -0.10031       -1.09357
H         -2.45716       -0.00362       -1.61008
N          2.49552        0.68179        1.61958
H          2.46466        1.36457        0.85946
C          3.81288        0.61231        2.24935
H          4.15045        1.56584        2.67444
H          3.80205       -0.13456        3.04781
H          4.55210        0.29457        1.50823
H          1.78010        0.98891        2.27301
H          1.05150       -1.87634       -1.79664
H          1.56410       -0.20664       -1.48711
H          3.46724       -1.56126       -2.37201
H          3.78610       -0.99007       -0.73226
H          3.00463       -3.72340       -1.44287
H          4.29661       -3.22741       -0.57308
H          0.26839       -1.34302        0.32951
H          1.62003       -2.30753        0.55011
C          1.70682       -1.24595       -1.18933
C          3.16316       -1.67004       -1.32299
N          1.29695       -1.39081        0.22768
N          3.32792       -3.02156       -0.78494
H          1.76116       -0.63071        0.82844
