37
2msa1ma1eda_410.log	Energy: -1013351.6790630
S          2.13250       -0.91668       -0.69729
O          2.04948       -2.01212        0.28141
O          2.96596        0.23506       -0.27876
O          0.76900       -0.45479       -1.14218
C          2.89730       -1.58093       -2.16970
H          3.90009       -1.91622       -1.90315
H          2.29594       -2.41916       -2.52260
H          2.94271       -0.79382       -2.92240
S         -2.50828       -0.87475        0.20859
O         -1.87264       -0.15686        1.30846
O         -2.89755       -0.15789       -0.98986
O         -3.85955       -1.54149        0.82146
H         -3.89163       -1.33355        1.76608
C         -1.56140       -2.30195       -0.22929
H         -0.64679       -1.91331       -0.69130
H         -1.32766       -2.85245        0.68144
H         -2.15363       -2.89695       -0.92435
N          2.23503        1.32789        2.34562
H          2.87694        1.03780        1.60462
C          1.83864        0.14761        3.12581
H          2.66826       -0.30099        3.68545
H          1.04575        0.41870        3.82881
H          1.45501       -0.61245        2.44040
H          2.70654        2.00877        2.93117
H          0.46287        3.73677       -0.04343
H          1.41225        2.57592       -1.01329
H         -0.55921        3.47405       -2.31853
H         -0.64475        1.72847       -2.06842
H         -2.43390        3.70207       -1.01244
H         -2.61795        2.06193       -1.10336
H          0.92344        1.72560        1.25497
H         -0.74460        1.78252        0.81292
C          0.44242        2.76715       -0.54862
C         -0.70183        2.69622       -1.55942
N          0.21601        1.71613        0.46303
N         -1.98030        2.81159       -0.86021
H          0.31929        0.79617       -0.01951
