41
2msa1dma1tma_134.log	Energy: -1027937.3692133
S          1.41674       -1.80422        0.07126
O          1.17639       -3.05171       -0.64387
O          0.17328       -0.97552        0.29407
O          2.43592       -0.89884       -0.54838
H          1.55567        0.36947       -1.15823
C          2.02389       -2.18763        1.70250
H          1.30462       -2.85744        2.17495
H          2.99002       -2.68097        1.59230
H          2.10882       -1.25418        2.26356
S         -2.87054        0.04373        0.05310
O         -2.66706        0.19918       -1.38607
O         -2.37677        1.12073        0.90528
O         -2.30982       -1.34760        0.53804
H         -1.29070       -1.34078        0.45796
C         -4.59578       -0.22803        0.37383
H         -5.11920        0.67723        0.06494
H         -4.92431       -1.08539       -0.21281
H         -4.72520       -0.40492        1.44103
N          1.43014        1.21351        2.15428
C          2.71705        1.66463        1.67014
C          0.59638        2.27681        2.67941
H          0.92392        0.68317        1.45097
H          3.33287        2.00545        2.51049
H          3.23465        0.84079        1.17115
H          2.65683        2.51446        0.95790
H          1.04321        2.68419        3.59370
H          0.46207        3.11792        1.97235
H         -0.39235        1.88122        2.92004
N          1.14227        1.08320       -1.81659
C          0.32931        2.06348       -1.05481
H         -0.42987        1.53407       -0.48131
H          0.98361        2.61606       -0.38047
H         -0.14925        2.74760       -1.75889
C          2.30648        1.71579       -2.47766
H          2.92293        2.19624       -1.71696
H          2.88729        0.94015       -2.97730
H          1.95648        2.45485       -3.20163
C          0.31035        0.31030       -2.77755
H          0.91730       -0.49948       -3.18368
H         -0.55370       -0.09171       -2.24884
H         -0.02339        0.98091       -3.57263
