40
2msa1dma1eda_319.log	Energy: -1038018.3242507
S          1.33085       -1.06646        0.29254
O          0.97883        0.37579        0.48923
O          2.20095       -1.57786        1.37105
O          1.97826       -1.27038       -1.05397
H          3.51631       -1.30354       -0.74361
C         -0.18123       -1.98747        0.27127
H         -0.68819       -1.85048        1.22707
H         -0.81958       -1.61197       -0.53203
H          0.07376       -3.03604        0.11755
S         -3.58622       -0.48437       -0.05008
O         -3.38594       -1.58729        0.89707
O         -2.64446       -0.47549       -1.19923
O         -3.60419        0.87035        0.61165
H         -2.18305        1.49917        0.35489
C         -5.22553       -0.67687       -0.73679
H         -5.26670       -1.64567       -1.23551
H         -5.94548       -0.63784        0.08104
H         -5.40349        0.12987       -1.44809
N         -1.23426        1.93895        0.13553
C         -0.96509        3.01620        1.10292
C         -1.23821        2.36405       -1.27793
H         -0.50821        1.20260        0.25272
H         -1.74167        3.77847        1.01954
H         -0.97774        2.59187        2.10690
H          0.01383        3.45652        0.90266
H         -1.98866        3.14535       -1.41302
H         -0.24943        2.74045       -1.54823
H         -1.50230        1.49258       -1.87805
H          6.06558        0.27431       -0.51966
H          5.13614       -0.02392       -2.01455
H          4.60661        2.22066       -0.95374
H          3.19161        1.16860       -1.09325
H          4.34109        2.12189        1.32344
H          2.94739        1.24356        1.09998
H          5.08838       -1.91316       -0.38941
H          4.27468       -0.90157        0.66820
C          5.06542        0.12575       -0.93497
C          4.14758        1.30057       -0.57660
N          4.48644       -1.09656       -0.32464
N          3.93352        1.32008        0.86369
