41
2msa1dma1tma_110.log	Energy: -1027939.4234973
S         -1.23381        1.45074       -0.90317
O          0.24218        1.50071       -1.12770
O         -1.63646        1.86897        0.45189
O         -1.80025        0.12206       -1.27844
C         -1.92193        2.62500       -2.05487
H         -1.49178        3.60226       -1.83488
H         -1.66020        2.30699       -3.06415
H         -3.00378        2.64183       -1.92154
S          1.72077       -1.65944       -0.72732
O          1.92329       -2.96051       -1.33646
O          0.67409       -1.52930        0.29294
O          1.45771       -0.62482       -1.88382
H          0.95596        0.19990       -1.56441
C          3.24718       -1.09250       -0.01916
H          3.52568       -1.81069        0.75387
H          3.99506       -1.08136       -0.81244
H          3.09837       -0.09393        0.41363
N          2.69362        1.70768        1.69413
C          1.45892        1.22126        2.29564
C          2.50228        2.96460        0.97916
H          3.39754        1.83050        2.41448
H          0.72708        1.04456        1.50355
H          1.64755        0.27097        2.80582
H          1.01238        1.92976        3.01492
H          1.79337        2.79961        0.16317
H          2.10546        3.77170        1.61907
H          3.45403        3.29410        0.55250
N         -2.27211       -1.30575        0.94859
C         -3.68365       -0.85032        0.94036
H         -3.68651        0.23536        1.04278
H         -4.13540       -1.12563       -0.01239
H         -4.21768       -1.32147        1.76877
C         -2.14731       -2.76613        0.72283
H         -2.64111       -3.01571       -0.21685
H         -1.08706       -3.00683        0.65337
H         -2.62135       -3.29753        1.55147
C         -1.57586       -0.86410        2.18501
H         -0.54167       -1.19869        2.13347
H         -1.60749        0.22585        2.21446
H         -2.08761       -1.29830        3.04751
H         -1.83491       -0.82132        0.12154
