32
2msa1a1dma_75.log	Energy: -953962.2541284
S          3.49965       -0.45072        0.01106
O          2.96500       -1.80299        0.19013
O          3.27582        0.45468        1.18490
O          3.04218        0.22012       -1.25082
H          2.14074        1.69970       -0.86831
C          5.27284       -0.60923       -0.14453
H          5.65048       -1.07157        0.76785
H          5.47934       -1.24245       -1.00783
H          5.70575        0.38192       -0.28160
S         -1.46132        0.28621        0.02213
O         -0.90436        1.65754        0.12934
O         -2.22368        0.04135       -1.21987
O         -2.30462       -0.05425        1.22977
H         -3.70831       -0.28701        0.85020
C         -0.08280       -0.83463        0.06003
H          0.55427       -0.63811       -0.80379
H          0.47814       -0.68187        0.98247
H         -0.46227       -1.85507        0.01667
N          1.74520        2.25862       -0.07945
H          1.94641        3.24900       -0.16821
H          2.25555        1.81865        0.72005
H          0.71717        2.08292        0.00237
N         -4.73192       -0.45412        0.48664
C         -4.72369       -1.68446       -0.34012
C         -5.15040        0.75797       -0.25848
H         -5.32805       -0.58496        1.30213
H         -3.99202       -1.53308       -1.13488
H         -4.41618       -2.52378        0.28429
H         -5.71849       -1.86368       -0.75265
H         -4.42760        0.90884       -1.06154
H         -6.15742        0.62060       -0.65727
H         -5.12223        1.61108        0.41982
