41
2msa1dma1tma_96.log	Energy: -1027940.3937838
S         -3.15691       -1.00171        0.18089
O         -4.42582       -1.55654        0.64899
O         -2.11555       -0.80510        1.21948
O         -3.32804        0.27605       -0.61344
H         -2.31750        1.29282       -0.20012
C         -2.47458       -2.15462       -1.00627
H         -2.30113       -3.10353       -0.49612
H         -3.20481       -2.28570       -1.80545
H         -1.54289       -1.73806       -1.39512
S          1.53631       -0.82282       -0.34518
O          0.60068       -0.39552       -1.39172
O          1.87611        0.28076        0.62280
O          2.80616       -1.42960       -0.87469
H          4.09553       -0.58545       -0.32226
C          0.74096       -2.09542        0.60720
H         -0.19637       -1.69026        1.00279
H          0.54493       -2.93185       -0.06509
H          1.41773       -2.39961        1.40612
N          4.50378        0.22692        0.22480
C          5.04791        1.23518       -0.70310
C          5.42951       -0.23425        1.27360
H          3.59578        0.55514        0.63243
H          5.92317        0.82594       -1.20994
H          4.27822        1.47432       -1.43726
H          5.32670        2.13397       -0.15016
H          6.30411       -0.69421        0.81099
H          5.74029        0.61151        1.88958
H          4.91350       -0.96891        1.89199
N         -1.75820        2.20345        0.01175
C         -0.93571        2.48366       -1.18629
H         -0.25008        1.64723       -1.33803
H         -1.59892        2.57217       -2.04819
H         -0.38560        3.41771       -1.03849
C         -2.80430        3.22584        0.22261
H         -3.45433        3.25006       -0.65265
H         -3.39652        2.94376        1.09374
H         -2.33955        4.20306        0.38028
C         -0.92958        2.00892        1.22463
H         -1.55921        1.59076        2.00949
H         -0.12497        1.30792        1.00392
H         -0.51115        2.97505        1.52465
