40
2msa1dma1eda_576.log	Energy: -1038002.6585395
S         -2.89047       -1.08526        0.12789
O         -3.63471       -2.27740        0.49514
O         -2.08091       -1.11129       -1.08793
O         -1.95643       -0.65036        1.34564
H         -0.99054       -0.79949        1.12737
C         -3.99757        0.29921        0.07848
H         -4.73494        0.07669       -0.69446
H         -4.48288        0.37203        1.05232
H         -3.43849        1.21147       -0.16322
S          1.46560       -1.36540       -0.20224
O          1.66580       -0.30852       -1.21664
O          0.60412       -0.94346        0.93170
O          2.79557       -1.85403        0.31500
H          3.63179       -0.63667        0.59608
C          0.69475       -2.75964       -0.98350
H         -0.27832       -2.42482       -1.34940
H          1.34050       -3.08788       -1.79784
H          0.58058       -3.54313       -0.23389
N          4.14858        0.31818        0.71514
C          3.17602        1.30116        1.25844
C          4.69557        0.69857       -0.60938
H          4.90426        0.17512        1.38312
H          2.38924        1.43743        0.51461
H          2.73416        0.89332        2.16734
H          3.68249        2.24684        1.46025
H          3.86129        0.70461       -1.31261
H          5.16558        1.68190       -0.54859
H          5.42393       -0.05150       -0.91763
H         -0.96396        4.49240        0.20872
H         -1.88943        3.48857        1.33946
H          0.36633        2.60024        1.10491
H         -0.80111        1.45450        0.44732
H          0.98374        3.12976       -1.14723
H          0.67079        1.50434       -1.26365
H         -3.07851        3.99451       -0.79179
H         -1.97839        3.02899       -1.54323
C         -1.43169        3.50097        0.34344
C         -0.34484        2.43235        0.27816
N         -2.45161        3.20875       -0.65979
N          0.27428        2.41394       -1.04185
