43
2msa1eda1tma_238.log	Energy: -1062669.9579811
S         -0.86279       -1.59266        0.92657
O         -0.95081       -0.28626        1.59153
O          0.18941       -2.49357        1.37917
O         -0.77327       -1.38795       -0.63331
H          0.12478       -0.95842       -0.92906
C         -2.44459       -2.38139        1.02638
H         -2.61826       -2.58473        2.08416
H         -3.20010       -1.69214        0.62637
H         -2.39613       -3.31128        0.45983
S          2.72341       -0.54574       -0.93401
O          3.74644       -0.06735       -1.85769
O          1.32377       -0.28281       -1.43353
O          2.85251       -0.01122        0.46096
H          1.85701        1.16049        0.74705
C          2.86796       -2.31344       -0.77215
H          2.72330       -2.75419       -1.75895
H          3.86961       -2.52821       -0.39891
H          2.10962       -2.65664       -0.06541
H         -4.35488        2.13185        0.01759
H         -3.06480        1.21273        0.82266
H         -2.28144        2.08635       -1.32342
H         -2.31042        0.31582       -1.33526
H         -4.24573        2.06260       -2.67249
H         -3.34856        0.85012       -3.30977
H         -5.27838        0.06674        0.75777
H         -5.05010       -0.10921       -0.85969
C         -3.75583        1.20545       -0.02796
C         -2.94468        1.20663       -1.31959
N         -4.57279       -0.00514        0.03302
N         -3.83816        1.15437       -2.47703
N          1.40711        2.10775        0.95582
C          1.07922        2.11933        2.40130
H          0.36687        1.31632        2.59297
H          1.99611        1.94554        2.96564
H          0.65085        3.08931        2.66639
C          2.45375        3.09515        0.60338
H          3.34674        2.88677        1.19272
H          2.69432        2.98163       -0.45425
H          2.08622        4.10398        0.80596
C          0.19892        2.26228        0.10832
H          0.47789        2.08258       -0.93026
H         -0.53035        1.51503        0.41980
H         -0.20013        3.27188        0.23978
