37
2msa1ma1eda_108.log	Energy: -1013362.0122426
S          0.79398        1.61780       -0.54370
O         -0.07419        1.33766       -1.69680
O          2.21734        1.26524       -0.73623
O          0.26247        0.98079        0.72239
C          0.73418        3.37482       -0.24163
H          1.12664        3.87706       -1.12609
H         -0.30522        3.65576       -0.06895
H          1.34600        3.59652        0.63286
S         -2.88808       -0.34616        0.40711
O         -4.17068       -0.63477        1.01255
O         -1.86870       -1.39917        0.35981
O         -2.27870        0.90926        1.15713
H         -1.28215        0.97322        0.98991
C         -3.12771        0.25385       -1.24916
H         -3.51921       -0.57660       -1.83814
H         -3.85109        1.06827       -1.20806
H         -2.16206        0.59538       -1.63126
N          3.25283       -0.61661        1.32946
H          4.14531       -1.08884        1.23207
C          3.12492        0.04895        2.62900
H          3.91001        0.79045        2.82133
H          2.15749        0.55752        2.65960
H          3.14962       -0.69437        3.43106
H          3.18519        0.07587        0.58157
H          1.45915       -3.58743       -0.28209
H         -0.26107       -3.12626       -0.48238
H          0.94746       -2.75663       -2.55986
H          0.40880       -1.21368       -1.90360
H          2.95689       -1.79361       -2.63546
H          2.55186       -0.57797       -1.61571
H          0.50662       -2.27992        1.55021
H          1.88222       -1.49772        0.90992
C          0.76690       -2.75942       -0.45336
C          1.11686       -2.03968       -1.74988
N          0.87752       -1.84018        0.71013
N          2.50563       -1.58565       -1.75422
H          0.31014       -0.98938        0.57033
