30
2msa1eda_58.log	Energy: -953206.0132066
S         -1.00469        1.67730        0.06844
O         -0.19478        1.77124        1.28783
O         -2.34470        1.07849        0.23195
O         -0.25492        0.95563       -1.04497
C         -1.23824        3.33012       -0.55772
H         -1.79979        3.89122        0.18969
H         -0.25653        3.77725       -0.71514
H         -1.79241        3.26926       -1.49412
S          2.65929       -0.62032       -0.01914
O          4.00436       -1.05496       -0.32794
O          1.56615       -1.59658       -0.08293
O          2.32158        0.58598       -0.99036
H          1.33371        0.78527       -0.99415
C          2.62060        0.13514        1.58935
H          2.80487       -0.65304        2.32038
H          3.41186        0.88404        1.62219
H          1.63925        0.59555        1.73105
H         -2.81107       -0.73715       -1.26798
H         -2.58639       -2.36762       -1.95434
H         -4.29919       -2.14922       -0.02494
H         -3.07344       -3.40480        0.20983
H         -2.86420       -0.70773        1.37820
H         -3.03876       -2.14716        2.19354
H         -0.63048       -0.70999       -0.97919
H         -0.97936       -1.66791        0.32630
C         -2.46751       -1.75164       -1.06235
C         -3.22783       -2.32209        0.14208
N         -1.02714       -1.64067       -0.70961
N         -2.68993       -1.71172        1.34998
H         -0.41593       -2.37057       -1.06952
