28
2msa1dma_49.log	Energy: -918453.3613734
S         -1.13358        0.25107        0.03768
O         -1.88072        0.38528       -1.23276
O         -0.34768       -0.98580        0.16254
O         -2.08420        0.43635        1.21004
H         -3.41177        0.05717        0.83177
C         -0.00348        1.62103        0.15762
H          0.69669        1.55735       -0.67668
H         -0.57843        2.54599        0.11289
H          0.53406        1.53946        1.10293
S          3.40402       -0.00933        0.00603
O          3.04946        0.76828       -1.17393
O          3.17851        0.52946        1.32974
O          4.99641       -0.34190       -0.13120
H          5.33202        0.16136       -0.88652
C          2.71738       -1.63777       -0.09615
H          1.63271       -1.52077        0.00955
H          2.97685       -2.06016       -1.06633
H          3.13152       -2.22820        0.72120
N         -4.40810       -0.27648        0.45645
C         -4.21411       -1.60355       -0.17406
C         -4.91826        0.75175       -0.47892
H         -5.02831       -0.36119        1.25960
H         -3.49137       -1.47958       -0.98200
H         -3.80454       -2.28810        0.56922
H         -5.16451       -1.98023       -0.55837
H         -4.15909        0.88764       -1.25087
H         -5.86689        0.42753       -0.91246
H         -5.05259        1.68707        0.06523
