30
2msa1eda_88.log	Energy: -953200.1951145
S          0.89247        1.49825        0.03297
O          0.42030        0.82850       -1.21635
O          2.33472        1.78236        0.01600
O          0.48348        0.68772        1.23625
H          1.24724       -0.68602        1.28691
C         -0.00864        3.02278        0.16141
H          0.26764        3.64116       -0.69292
H         -1.07120        2.77410        0.13397
H          0.26889        3.50660        1.09784
S         -2.70095       -0.44856       -0.18149
O         -3.78600       -1.29949       -0.62590
O         -2.76971        0.99444       -0.36775
O         -1.36249       -0.99335       -0.85455
H         -0.71398       -0.23361       -1.02469
C         -2.40727       -0.76541        1.54763
H         -3.29057       -0.42341        2.08860
H         -2.27460       -1.83944        1.68182
H         -1.52009       -0.20224        1.84175
H          2.25471       -3.28744        0.17031
H          0.79682       -2.38708       -0.34059
H          3.01471       -2.15750       -1.79275
H          2.07061       -0.70730       -1.44529
H          4.72133       -1.18500       -0.64941
H          3.76696        0.12839       -0.31379
H          1.59203       -2.15434        2.08711
H          2.83875       -1.24537        1.38568
C          1.83047       -2.29495       -0.00166
C          2.69143       -1.48436       -0.99456
N          1.85516       -1.56996        1.29844
N          3.82599       -0.88809       -0.28655
