40
2msa1dma1eda_244.log	Energy: -1038020.0885626
S          0.61108        2.32439        0.20740
O          1.27118        1.57730       -0.86808
O          1.40456        3.30320        0.92582
O          0.03881        1.29392        1.26041
C         -0.84088        3.08749       -0.48125
H         -0.48580        3.85131       -1.17397
H         -1.40709        2.31545       -1.00558
H         -1.41814        3.53436        0.32805
S         -2.63987       -0.37971       -0.21023
O         -2.59541       -1.80111        0.17733
O         -1.78999       -0.05310       -1.38452
O         -2.34255        0.54879        0.93384
H         -0.94060        0.99527        1.10790
C         -4.32399       -0.01392       -0.66359
H         -4.59232       -0.65514       -1.50344
H         -4.95750       -0.22279        0.19851
H         -4.38687        1.03766       -0.94349
N          3.37133       -0.44052       -0.54466
C          4.49514       -1.01845       -1.27061
C          3.59167       -0.37295        0.89857
H          3.16773        0.49794       -0.88351
H          4.62060       -2.06637       -0.97833
H          4.29535       -0.98581       -2.34455
H          5.44453       -0.49698       -1.07570
H          3.67406       -1.38775        1.30358
H          4.50522        0.17768        1.16501
H          2.74027        0.11977        1.37558
H         -0.69086       -2.71103       -1.01700
H          0.98983       -3.08480       -1.48819
H          0.12513       -4.36708        0.54818
H          1.61264       -3.45662        0.85694
H         -1.07368       -2.47016        1.55514
H          0.15907       -2.85032        2.60267
H          0.09946       -0.61268       -1.13873
H          0.46239       -0.97684        0.43038
C          0.35541       -2.65160       -0.71249
C          0.54382       -3.35479        0.63460
N          0.68853       -1.21725       -0.55023
N         -0.06270       -2.52966        1.66944
H          1.71717       -0.99480       -0.68597
