34
2msa1a1eda_340.log	Energy: -988687.5589170
S         -0.54338        1.06385        0.43685
O         -0.86152       -0.22900        1.08108
O         -0.35339        1.01925       -1.00724
O          0.70040        1.70379        1.14508
H          1.53158        1.08353        1.04882
C         -1.81070        2.21689        0.85970
H         -2.72493        1.85088        0.36900
H         -1.90705        2.23896        1.94490
H         -1.51715        3.19098        0.46807
S          3.36108       -0.33065       -0.29225
O          4.79750       -0.42313       -0.08424
O          2.60010        0.09717        0.94536
O          2.72025       -1.58335       -0.81829
H          1.66897       -2.07366        0.17189
C          3.04934        0.92467       -1.51839
H          3.48015        1.85879       -1.15586
H          3.54329        0.61096       -2.43837
H          1.97184        1.01765       -1.66572
N          0.98186       -2.29069        0.98250
H          0.23441       -1.56412        0.98704
H          1.51279       -2.19741        1.84649
H          0.58550       -3.22280        0.90700
H         -4.05567       -1.00614       -2.12246
H         -2.52398       -0.45687       -1.42319
H         -3.38056       -2.34368       -0.14368
H         -3.40170       -0.88288        0.85259
H         -5.75101       -2.09432       -0.42325
H         -5.50837       -1.79536        1.16644
H         -4.07988        1.38262       -1.88247
H         -5.08926        0.77255       -0.73717
C         -3.60256       -0.51235       -1.24560
C         -3.86823       -1.36491       -0.01161
N         -4.11666        0.83965       -1.02660
N         -5.30888       -1.45816        0.23234
