40
2msa1dma1eda_58.log	Energy: -1038036.3410390
S          2.68375       -0.67862       -0.48989
O          2.38191       -1.72830        0.52747
O          3.24817        0.55822        0.09155
O          1.50573       -0.42768       -1.36600
C          3.94710       -1.36784       -1.54454
H          4.81838       -1.59281       -0.92907
H          3.55207       -2.27455       -2.00268
H          4.19401       -0.62740       -2.30547
S         -2.99191        0.15953       -0.34149
O         -2.76827        1.62982       -0.26088
O         -3.41498       -0.46997        0.92029
O         -1.79177       -0.51744       -0.93842
C         -4.30908       -0.07331       -1.52213
H         -5.20076        0.41607       -1.12956
H         -4.00660        0.37606       -2.46786
H         -4.47829       -1.14380       -1.63909
N         -0.32520       -1.89870        0.87903
C         -0.98842       -3.21721        0.87633
C         -0.46084       -1.17215        2.16206
H          0.69398       -1.97523        0.65771
H         -2.05243       -3.06788        1.06741
H         -0.85034       -3.67546       -0.10295
H         -0.54697       -3.85006        1.64807
H         -1.51385       -0.92946        2.31672
H         -0.07815       -1.80066        2.96798
H          0.13765       -0.25962        2.11483
H         -0.77628       -1.33053        0.11996
H          1.86321        2.38914       -0.94378
H          0.53852        3.56339       -1.17388
H          2.07487        4.02430        0.83170
H          0.35856        3.89824        1.25513
H          2.28213        1.68366        1.53113
H          1.48087        2.47961        2.75369
H          0.24531        0.87748       -1.01737
H          0.11133        1.32237        0.56091
C          0.94540        2.79547       -0.51502
C          1.22412        3.33315        0.89234
N         -0.01354        1.66978       -0.40405
N          1.43468        2.19516        1.78362
H         -1.02425        1.89309       -0.50796
