34
2msa1a1eda_234.log	Energy: -988697.9181319
S         -0.59010        1.83400       -0.40246
O         -1.83639        1.60496       -1.17471
O          0.64245        1.83804       -1.20676
O         -0.51953        0.82117        0.72224
H          0.67343       -0.00440        0.96644
C         -0.72666        3.41634        0.39401
H         -0.80173        4.17452       -0.38607
H         -1.62261        3.40997        1.01492
H          0.17938        3.55002        0.99117
S          1.83386       -1.57485       -0.02284
O          2.63527       -2.66349        0.49017
O          1.47343       -0.62412        1.17573
O          0.59796       -1.91672       -0.75114
H         -0.97972       -1.28279       -1.03068
C          2.81529       -0.55048       -1.09117
H          3.69589       -0.23411       -0.53132
H          3.10205       -1.16050       -1.94876
H          2.20372        0.30412       -1.39136
N          2.48105        2.57393        1.19504
H          2.29313        2.43520        0.20535
H          2.49527        1.65875        1.63427
H          3.39982        2.98904        1.29938
H         -3.85433       -1.92305       -0.66210
H         -2.50817       -3.10149       -0.73808
H         -3.11630       -2.68160        1.57986
H         -1.49338       -2.06210        1.27626
H         -3.38396       -0.61487        2.44203
H         -2.29385        0.10020        1.44198
H         -2.13113       -1.26539       -2.22652
H         -2.19423       -0.12657       -1.03151
C         -2.80246       -2.09605       -0.42673
C         -2.55924       -1.89373        1.06382
N         -1.99242       -1.13463       -1.22598
N         -3.04158       -0.58882        1.49031
