32
2msa1a1dma_89.log	Energy: -953957.8833430
S          1.74345       -1.41441       -0.22706
O          2.00487       -2.75967       -0.71315
O          1.03305       -1.32481        1.06764
O          0.96614       -0.57183       -1.30153
H         -0.05009       -0.59376       -1.15867
C          3.23284       -0.47358       -0.10221
H          3.85829       -0.96862        0.64156
H          3.71423       -0.48366       -1.08038
H          2.93444        0.53980        0.20541
S         -2.25775        0.35205       -0.13173
O         -1.53295       -0.71399       -0.91597
O         -1.43940        1.53792        0.12162
O         -2.86510       -0.26778        1.08598
H         -2.05500       -1.61329        1.41779
C         -3.62861        0.84694       -1.15576
H         -3.22415        1.29202       -2.06497
H         -4.22535       -0.03518       -1.38691
H         -4.21475        1.57692       -0.59717
N         -1.40051       -2.45479        1.42298
H         -1.59474       -2.99852        0.58417
H         -1.51037       -3.02797        2.25442
H         -0.42053       -2.08361        1.34347
N          1.56204        2.23450        0.41211
C          1.65189        2.84616       -0.90509
C          1.68535        3.20724        1.48592
H          0.65310        1.78222        0.48496
H          2.64906        3.28170       -1.04271
H          1.50381        2.07919       -1.67012
H          0.90782        3.64466       -1.06547
H          2.68606        3.65454        1.46663
H          0.94801        4.02567        1.41883
H          1.55657        2.70836        2.45030
