43
2msa1eda1tma_70.log	Energy: -1062682.8415537
S         -0.03420        2.23138       -0.28506
O         -0.84350        3.13855       -1.09074
O          0.38663        0.99567       -1.05821
O         -0.65648        1.80993        1.00179
H         -0.50530        0.05053        1.10995
C          1.48779        3.05420        0.14874
H          1.99239        3.34263       -0.77406
H          1.22837        3.93725        0.73347
H          2.09832        2.36450        0.73476
S          2.77540       -0.91754        0.18414
O          1.81038       -2.02449        0.26260
O          2.80958       -0.01178        1.32625
O          2.58338       -0.12358       -1.14895
H          1.66917        0.40334       -1.12884
C          4.38625       -1.60745       -0.09426
H          4.62847       -2.20794        0.78301
H          4.34746       -2.22605       -0.99034
H          5.09530       -0.78823       -0.20990
H         -2.12207       -2.29336        1.84404
H         -0.80734       -1.78122        2.92767
H         -3.04408       -0.78691        3.50075
H         -1.77436        0.41252        3.22574
H         -4.07568        0.65815        2.08168
H         -2.73198        0.98547        1.21791
H          0.10245       -1.47839        0.81655
H         -1.35483       -0.99117        0.09712
C         -1.51816       -1.44246        2.16967
C         -2.40832       -0.33794        2.73164
N         -0.76196       -0.94946        0.99474
N         -3.24582        0.23653        1.68140
N         -2.19969       -1.22229       -1.35199
C         -1.19826       -1.67013       -2.31769
H         -0.45874       -0.87864       -2.45559
H         -0.68936       -2.56064       -1.93575
H         -1.65318       -1.91467       -3.29182
C         -3.19818       -2.25476       -1.09564
H         -2.70564       -3.16501       -0.73748
H         -3.88835       -1.89951       -0.32540
H         -3.77058       -2.50862       -2.00392
C         -2.83580        0.01880       -1.79390
H         -3.55078        0.34305       -1.03486
H         -2.08021        0.79588       -1.92299
H         -3.36814       -0.12378       -2.74925
