32
2msa2ma_195.log	Energy: -953957.1954483
S          2.94669        0.06078       -0.06017
O          3.24055       -0.14896        1.34725
O          2.18708        1.28674       -0.38340
O          2.26618       -1.17746       -0.71588
H          1.34183       -1.43107       -0.29169
C          4.44918        0.10159       -1.00344
H          5.03026        0.94835       -0.63738
H          4.97950       -0.83481       -0.83275
H          4.19639        0.22705       -2.05560
S         -1.18640       -1.09320        0.21027
O          0.09997       -1.85348        0.30379
O         -1.32580       -0.35330       -1.05876
O         -1.38308       -0.20723        1.40119
H         -0.60492        1.18420        1.21661
C         -2.46719       -2.32010        0.30265
H         -2.30157       -3.03221       -0.50631
H         -2.39200       -2.81176        1.27229
H         -3.42460       -1.80820        0.17466
N         -0.11266        2.07309        0.90108
H          0.07891        2.66103        1.70879
C         -0.94397        2.75838       -0.11746
H         -0.39862        3.60878       -0.52635
H         -1.16098        2.02802       -0.89766
H         -1.87534        3.08849        0.34236
H          0.79707        1.77942        0.48344
N         -4.37491        0.10879       -1.03610
H         -3.45854        0.02010       -1.46868
C         -4.37732        1.21199       -0.08230
H         -4.17964        2.20285       -0.52427
H         -5.34621        1.25983        0.42385
H         -3.61608        1.01866        0.68003
H         -5.06034        0.25504       -1.76809
