42
2msa2eda_590.log	Energy: -1072741.5192520
S         -2.43587       -0.21413       -0.66703
O         -1.31955        0.38990       -1.40561
O         -2.64048        0.32778        0.70219
O         -2.32740       -1.72359       -0.60348
H         -1.97648       -2.07380        0.95360
C         -3.92111        0.12404       -1.58850
H         -4.03102        1.20737       -1.64786
H         -3.80411       -0.30570       -2.58343
H         -4.76646       -0.32422       -1.06692
S          2.82245       -0.14938       -0.53643
O          4.24145        0.10314       -0.67936
O          2.25593       -0.24597        0.81612
O          2.48945       -1.49699       -1.29984
H          1.64426       -1.94546       -0.92727
C          1.90023        1.07068       -1.43526
H          1.99939        2.01052       -0.88462
H          2.32492        1.13996       -2.43674
H          0.85233        0.76289       -1.46445
H          0.09457       -3.87560        1.52566
H          1.59736       -2.95044        1.39808
H          0.30070       -1.64259        2.84601
H          0.14593       -0.83236        1.28904
H         -1.88929       -2.53308        2.60948
H         -2.00139       -0.93003        2.07803
H          0.58024       -3.75920       -0.75386
H         -0.48875       -2.51694       -0.63740
C          0.53617       -2.94621        1.13445
C         -0.08826       -1.74841        1.83245
N          0.42939       -2.84927       -0.32866
N         -1.57834       -1.85810        1.91450
H         -0.85499        4.22382        1.41313
H         -1.94245        2.87016        1.10125
H         -0.20471        2.06044        2.54299
H          0.00852        1.33830        0.93898
H          1.60367        3.57287        1.96464
H          2.10907        2.05042        1.61421
H          0.13146        3.78457       -0.74507
H         -0.96236        2.60267       -1.02391
C         -0.93831        3.25566        0.90006
C          0.07608        2.27765        1.49660
N         -0.81501        3.48256       -0.53403
N          1.44402        2.77440        1.35859
