41
2msa1dma1tma_85.log	Energy: -1027941.0813083
S          1.55933        2.08971        0.21423
O          2.49618        1.53601        1.19683
O          0.29988        2.63840        0.74500
O          1.25316        1.08239       -0.89138
C          2.40226        3.41850       -0.62837
H          2.64302        4.17977        0.11410
H          3.31213        3.01773       -1.07547
H          1.73785        3.82136       -1.39277
S          2.20815       -2.11500        0.00409
O          2.61368       -3.43334       -0.43890
O          0.80164       -1.88598        0.34795
O          2.62441       -1.09002       -1.12766
H          2.13173       -0.21183       -1.02059
C          3.19772       -1.61751        1.39376
H          2.92335       -2.26331        2.22885
H          4.24479       -1.75832        1.12558
H          2.98063       -0.56758        1.60627
N         -4.99999       -0.40982       -0.17310
C         -5.49394        0.62565        0.72599
C         -5.09707       -1.74444        0.40569
H         -5.52986       -0.38164       -1.03794
H         -4.85626        0.66943        1.61594
H         -5.44459        1.60050        0.23319
H         -6.52873        0.45679        1.06566
H         -4.42733       -1.81565        1.26985
H         -6.11272       -2.00248        0.74699
H         -4.77616       -2.49112       -0.32561
N         -1.33544        0.22881       -0.53337
C         -2.04593        1.42694       -1.04798
H         -1.71423        2.28875       -0.46862
H         -1.77974        1.56542       -2.09676
H         -3.11859        1.25255       -0.94442
C         -1.65976       -0.98203       -1.32908
H         -1.38468       -0.79858       -2.36881
H         -1.07844       -1.81517       -0.93619
H         -2.73343       -1.15959       -1.24392
C         -1.60796        0.02717        0.91485
H         -1.02641       -0.82939        1.25226
H         -1.28757        0.92657        1.44171
H         -2.67868       -0.14548        1.03257
H         -0.31143        0.42761       -0.63347
