34
2msa1a1eda_322.log	Energy: -988689.6806394
S          2.24224       -1.15418        0.15560
O          2.85819       -2.41377       -0.23218
O          1.36257       -0.57514       -0.93860
O          3.20360       -0.08381        0.58690
H          2.96486        1.21346       -0.17783
C          1.17819       -1.44782        1.55146
H          0.37783       -2.11545        1.22689
H          1.78965       -1.90191        2.33182
H          0.76049       -0.49457        1.87776
S         -0.76371        1.88392        0.15470
O          0.15234        2.97061       -0.24976
O         -0.54977        1.33745        1.48774
O         -0.71914        0.75850       -0.93299
H          0.13905        0.16789       -0.85588
C         -2.43871        2.41760       -0.02319
H         -2.59700        3.21276        0.70617
H         -2.58082        2.78341       -1.03979
H         -3.05305        1.53464        0.19389
N          2.71717        2.03203       -0.84649
H          2.57726        1.60915       -1.76325
H          3.46238        2.72162       -0.88591
H          1.81953        2.47487       -0.55795
H         -3.78717       -2.72484        0.48105
H         -4.60423       -1.49150       -0.49049
H         -3.00570       -2.61440       -1.90182
H         -2.41776       -0.97037       -1.59653
H         -1.34653       -3.42515       -0.45010
H         -0.54708       -2.18073       -1.14864
H         -3.78085       -0.69955        1.72478
H         -2.26250       -0.84629        1.13880
C         -3.64487       -1.75897       -0.03248
C         -2.60207       -1.94219       -1.13020
N         -3.23222       -0.68572        0.87156
N         -1.33958       -2.41650       -0.55940
