42
2msa2eda_08.log	Energy: -1072772.3357776
S         -2.69732       -1.11790        0.16493
O         -2.18810       -1.82418       -1.04412
O         -3.74887       -0.12593       -0.10571
O         -1.55073       -0.56184        0.95562
C         -3.42776       -2.36995        1.20637
H         -4.25312       -2.82317        0.65673
H         -2.66767       -3.11445        1.44372
H         -3.79066       -1.88742        2.11396
S          2.62792        1.14747        0.29414
O          3.24567       -0.00304        0.97436
O          1.94693        2.10735        1.20293
O          1.72737        0.73583       -0.83300
C          3.95462        2.06372       -0.47223
H          4.63201        2.39548        0.31500
H          4.47043        1.40096       -1.16735
H          3.52717        2.91803       -0.99716
H         -0.58695        3.72942       -0.49658
H         -0.12238        2.19052       -1.25994
H         -2.40486        3.18474       -2.00605
H         -2.44507        1.50208       -1.48244
H         -3.86377        3.60316       -0.32472
H         -3.80235        2.01859        0.12871
H          0.22234        2.12830        1.08193
H         -1.43491        2.51672        1.33500
C         -0.85789        2.67706       -0.61718
C         -2.28772        2.52859       -1.13731
N         -0.75538        2.05413        0.72592
N         -3.24424        2.84393       -0.07567
H         -1.02293        1.04181        0.71783
H          0.91320       -3.71330       -1.27632
H          1.51753       -2.46332       -2.38966
H          3.35127       -3.61739       -1.01648
H          3.31297       -1.85756       -0.84565
H          2.96401       -3.71702        1.22149
H          2.91041       -2.06165        1.29154
H         -0.44523       -1.78494       -0.94887
H          0.59140       -1.95533        0.34676
C          1.41573       -2.74489       -1.33949
C          2.76793       -2.77992       -0.62036
N          0.55634       -1.75308       -0.66023
N          2.55123       -2.88718        0.81922
H          0.93434       -0.78513       -0.77057
