40
2msa1dma1eda_301.log	Energy: -1038018.3105270
S          0.41705        1.95767        0.04620
O          0.69662        1.26887       -1.24648
O          1.30052        1.51127        1.13722
O         -1.03699        1.88412        0.39919
C          0.73288        3.68636       -0.23956
H          0.08011        4.02717       -1.04286
H          0.52538        4.22283        0.68629
H          1.78095        3.79271       -0.52012
S         -3.34849       -0.59958        0.07071
O         -4.27993       -1.53061        0.67039
O         -2.57897       -1.04431       -1.09872
O         -2.35642       -0.13154        1.20578
H         -1.76258        0.64548        0.90611
C         -4.18307        0.90297       -0.38750
H         -4.87087        0.65632       -1.19670
H         -4.72376        1.26717        0.48580
H         -3.43076        1.62260       -0.71408
N          3.64756       -0.28595        0.23386
C          4.06405        0.32206       -1.02362
C          4.74612       -0.43852        1.17693
H          2.92850        0.30668        0.64819
H          4.71437       -0.36697       -1.57517
H          3.17980        0.53083       -1.63092
H          4.61633        1.26641       -0.88192
H          5.47740       -1.15343        0.78187
H          5.27633        0.50634        1.38190
H          4.36610       -0.83269        2.12351
H          0.99895       -0.93669        0.83479
H         -0.49624       -1.87792        0.90805
H          1.66175       -3.18497        1.42763
H          0.66355       -3.90837        0.15714
H          2.97050       -2.14989       -0.34298
H          2.85211       -3.77354       -0.72945
H         -0.80528       -1.55888       -1.28835
H          0.36587       -0.37647       -1.20083
C          0.45179       -1.76495        0.38234
C          1.28971       -3.04322        0.40400
N          0.17919       -1.39606       -1.03953
N          2.33317       -2.91286       -0.60794
H          0.84737       -1.94069       -1.60777
