32
2msa1a1dma_20.log	Energy: -953972.0391911
S          1.87917       -1.03350        0.00689
O          2.19715        0.07228       -0.93475
O          1.24866       -2.21105       -0.59886
O          1.09670       -0.49394        1.17937
H         -0.38242       -0.77855        1.19909
C          3.43730       -1.56394        0.69399
H          4.05095       -1.93965       -0.12510
H          3.91544       -0.70983        1.17358
H          3.23672       -2.35326        1.41847
S         -2.12012       -0.71467       -0.13788
O         -3.51528       -0.41795        0.13888
O         -1.40497       -0.86918        1.26661
O         -1.36278        0.23243       -0.95695
H         -0.24627        2.07459        0.26448
C         -1.96267       -2.32780       -0.85964
H         -2.45530       -3.04099       -0.19891
H         -2.45618       -2.29236       -1.83157
H         -0.89453       -2.53680       -0.96140
N         -1.59865        2.21696        1.50965
H         -1.67964        2.95911        2.19720
H         -1.52277        1.33504        2.01332
H         -2.48148        2.16738        1.00652
N          0.57885        2.21903       -0.36693
C          1.60718        2.95491        0.39096
C          0.12503        2.89091       -1.59942
H          0.98334        1.29101       -0.61588
H          1.20288        3.91741        0.71049
H          1.87926        2.35477        1.25961
H          2.48488        3.10355       -0.23920
H         -0.29820        3.86495       -1.34597
H          0.97311        3.01631       -2.27437
H         -0.63296        2.26095       -2.06322
