43
2msa1eda1tma_38.log	Energy: -1062692.1081429
S          2.85330        0.23957       -0.43479
O          1.58281        0.76737       -1.00534
O          3.03437       -1.20320       -0.77111
O          2.97743        0.52896        1.00949
C          4.18839        1.09500       -1.25527
H          4.11028        0.90413       -2.32562
H          4.09282        2.16046       -1.04402
H          5.12831        0.70843       -0.86080
S         -2.66773       -0.51908       -0.63240
O         -2.19109       -1.49799       -1.62775
O         -3.13597        0.77166       -1.16128
O         -1.63271       -0.30915        0.45615
C         -4.05338       -1.28120        0.19820
H         -4.82493       -1.46804       -0.54924
H         -3.71900       -2.21784        0.64481
H         -4.41925       -0.59678        0.96385
H         -0.82680       -3.06177        0.59165
H          0.55566       -3.96332       -0.06478
H          0.82735       -3.50860        2.35001
H          2.11741       -2.75787        1.41363
H          1.43489       -0.69497        1.93212
H         -0.17445       -1.09958        2.11303
H         -0.21569       -2.07723       -1.44402
H          0.11483       -1.05238       -0.24552
C          0.24285       -3.01195        0.37233
C          1.04844       -2.70122        1.63960
N          0.41741       -1.95141       -0.64753
N          0.78202       -1.40945        2.24458
H          1.41748       -1.82777       -0.92078
N         -0.91573        2.29392        0.59323
C         -0.63592        2.89469       -0.73842
H          0.27838        2.44342       -1.12447
H         -1.47732        2.66106       -1.39182
H         -0.52261        3.97466       -0.61534
C         -2.17541        2.82229        1.16996
H         -2.98232        2.61418        0.46654
H         -2.36866        2.31431        2.11557
H         -2.06780        3.89630        1.33718
C          0.23018        2.42995        1.52793
H         -0.02001        1.92701        2.46339
H          1.10970        1.95917        1.08700
H          0.41096        3.49138        1.71338
H         -1.08391        1.26558        0.45010
