34
2msa1a1eda_79.log	Energy: -988704.7229827
S          2.12414       -0.46072       -0.53648
O          1.31570       -1.47668       -1.26698
O          1.97415       -0.57142        0.93513
O          1.89304        0.92358       -1.02825
C          3.81591       -0.85328       -0.93250
H          4.46021       -0.14780       -0.40761
H          4.01121       -1.87444       -0.60525
H          3.94106       -0.76207       -2.01127
S         -1.82751       -1.66346        0.23731
O         -3.14467       -2.25915        0.27198
O         -1.73208       -0.20771        0.43450
O         -1.17062       -2.04577       -1.13838
H         -0.20128       -1.74507       -1.20146
C         -0.76710       -2.42726        1.44380
H         -1.20905       -2.23073        2.42150
H         -0.74637       -3.49792        1.24030
H          0.22829       -1.98100        1.36496
N          1.63868        1.81125        2.73062
H          1.95616        0.94192        2.29216
H          1.27447        1.58439        3.65024
H          2.44692        2.41027        2.86313
H         -1.24203        3.80917        0.77650
H          0.15932        3.98421       -0.31311
H         -1.83144        4.02694       -1.65920
H         -1.02522        2.48720       -1.96839
H         -3.54479        2.51372       -1.47824
H         -2.70228        1.43467       -0.58327
H          0.45307        2.19666        1.39906
H         -0.77975        1.34117        0.65014
C         -0.67092        3.33481       -0.02428
C         -1.58610        3.05924       -1.21136
N         -0.07924        2.08095        0.50142
N         -2.82286        2.42660       -0.77367
H          0.61432        1.67998       -0.16982
