32
2msa2ma_228.log	Energy: -953948.8256768
S         -2.11967       -0.38607       -0.03912
O         -1.40512       -1.45065       -0.72844
O         -3.08830       -0.75445        0.99513
O         -2.85479        0.52436       -1.10130
H         -3.89174        0.50685       -0.92932
C         -0.92979        0.74017        0.64216
H         -0.33386        0.19095        1.37369
H         -0.27965        1.08161       -0.16390
H         -1.46481        1.56880        1.10567
S          2.53990       -0.84007        0.24289
O          1.89762       -0.68618        1.54089
O          3.99560       -0.99428        0.20910
O          2.15234        0.38216       -0.68612
H          3.00400        0.98901       -0.84008
C          1.77325       -2.19078       -0.61344
H          1.95724       -3.08524       -0.01684
H          0.70178       -1.99163       -0.69179
H          2.23520       -2.28009       -1.59630
N          4.31859        1.76238       -0.89203
H          4.99534        1.00961       -0.99643
C          4.51199        2.43579        0.40172
H          5.49763        2.90265        0.49886
H          3.74192        3.20009        0.52567
H          4.39261        1.69563        1.19548
H          4.44154        2.40705       -1.66647
N         -5.37162        0.44398       -0.50339
H         -6.05717        0.51437       -1.24873
C         -5.60532        1.45409        0.53847
H         -6.59994        1.38327        0.99141
H         -4.85260        1.31736        1.31743
H         -5.48228        2.44913        0.10514
H         -5.43745       -0.48894       -0.10318
