38
2msa1ma1tma_39.log	Energy: -1003282.8103224
S         -0.91205       -1.55612       -0.64966
O         -2.18549       -2.25857       -0.47435
O         -0.34002       -1.08306        0.66257
O         -0.97234       -0.41696       -1.61266
H         -1.01959        1.01567       -0.87092
C          0.27326       -2.70196       -1.32299
H          0.37966       -3.52630       -0.61706
H         -0.11853       -3.06078       -2.27509
H          1.21865       -2.17393       -1.46310
S          2.80904        0.14719        0.28593
O          2.29752        1.51198        0.42492
O          2.83204       -0.42132       -1.05598
O          2.06438       -0.81340        1.28147
H          1.07088       -0.94338        1.00676
C          4.43952        0.07522        0.98811
H          5.07381        0.71725        0.37616
H          4.39164        0.44078        2.01337
H          4.78505       -0.95738        0.95088
N         -3.74372       -0.08289        1.05741
H         -4.75535        0.00023        1.07501
C         -3.24960       -0.48320        2.37810
H         -3.73214       -1.38295        2.78446
H         -2.17898       -0.68958        2.29883
H         -3.39453        0.33369        3.09367
H         -3.51798       -0.82221        0.39202
N         -1.14502        2.02444       -0.57797
C         -0.92812        2.12217        0.88780
H         -1.63948        1.45675        1.37572
H          0.09625        1.82286        1.10706
H         -1.09648        3.15784        1.19481
C         -0.14711        2.80803       -1.34472
H          0.85062        2.48028       -1.05016
H         -0.30466        2.62328       -2.40795
H         -0.28116        3.86979       -1.12355
C         -2.54211        2.36635       -0.94124
H         -2.68196        2.17442       -2.00576
H         -3.20078        1.72452       -0.34842
H         -2.71919        3.42232       -0.72134
