38
2msa2dma_237.log	Energy: -1003270.0229658
S         -1.14910       -1.60118        0.33708
O         -0.39809       -1.61736       -0.95126
O         -2.53854       -2.10324        0.16066
O         -1.15107       -0.24160        0.95957
H         -2.46504        0.55390        0.19031
C         -0.29051       -2.68062        1.45223
H         -0.26384       -3.67197        0.99964
H          0.71531       -2.27270        1.57297
H         -0.83233       -2.69546        2.39778
S          2.85211       -0.34612       -0.32818
O          3.88154       -1.23649       -0.83539
O          2.24619       -0.65251        0.96668
O          1.69543       -0.17449       -1.40700
H          0.90761       -0.76896       -1.19381
C          3.47465        1.31638       -0.31133
H          4.28469        1.33527        0.41922
H          3.85853        1.53897       -1.30726
H          2.66553        1.99969       -0.03045
N         -3.31549        0.46771       -0.42406
C         -2.91429        0.71025       -1.82981
C         -4.43206        1.29773        0.06321
H         -3.49568       -0.54922       -0.30072
H         -2.60448        1.75077       -1.93611
H         -2.08039        0.04557       -2.06310
H         -3.75848        0.49862       -2.48753
H         -4.16012        2.35032       -0.02881
H         -5.32509        1.09482       -0.52983
H         -4.61927        1.05685        1.10958
N          0.74291        3.06779        0.59390
C          0.60924        2.38277        1.87491
C         -0.25620        2.65464       -0.37362
H          0.70162        4.07185        0.72857
H          0.76569        1.31061        1.73003
H          1.36967        2.75476        2.56722
H         -0.38437        2.51608        2.33731
H         -0.12554        1.59002       -0.58538
H         -1.29596        2.80503       -0.01423
H         -0.12662        3.21203       -1.30614
