32
2msa1a1dma_137.log	Energy: -953954.5996926
S         -0.92807       -0.64268       -0.59260
O         -1.02556        0.75493       -1.06525
O         -0.78969       -0.81159        0.84866
O          0.22949       -1.37172       -1.35551
H          1.14585       -0.90607       -1.16776
C         -2.33369       -1.53203       -1.18705
H         -3.21602       -1.10256       -0.68969
H         -2.38285       -1.40608       -2.26844
H         -2.19907       -2.57990       -0.91853
S          3.13228        0.01632        0.34927
O          4.56648       -0.14417        0.17105
O          2.34498       -0.13235       -0.93685
O          2.71744        1.30758        0.99435
H          1.76062        2.06156        0.07091
C          2.54864       -1.27367        1.43193
H          2.79800       -2.23256        0.97610
H          3.06758       -1.15883        2.38394
H          1.47007       -1.16762        1.56058
N          1.12770        2.47156       -0.70768
H          1.65181        2.39669       -1.57759
H          0.87856        3.43934       -0.52512
H          0.27652        1.87730       -0.79653
N         -4.63278        0.07830        0.51677
C         -4.44282        1.41105       -0.04108
C         -4.07538       -0.05504        1.85808
H         -5.62168       -0.14521        0.53509
H         -3.37361        1.58531       -0.20087
H         -4.94052        1.47934       -1.01234
H         -4.82834        2.21516        0.60850
H         -2.98757        0.05492        1.81123
H         -4.46722        0.69203        2.56880
H         -4.28958       -1.05345        2.24840
