42
2msa2eda_230.log	Energy: -1072755.6773967
S         -2.86742       -0.06810       -0.47509
O         -3.06444        1.28605        0.06291
O         -2.99270       -1.17880        0.47711
O         -1.54479       -0.13733       -1.23191
C         -4.10498       -0.31726       -1.73738
H         -5.08173       -0.26225       -1.25588
H         -4.00005        0.46810       -2.48591
H         -3.95061       -1.30059       -2.18197
S          0.67741       -2.08626        0.59593
O          0.71177       -0.74172        1.17524
O          1.92621       -2.83240        0.53953
O          0.12118       -2.01943       -0.87491
H         -0.59913       -1.30055       -0.99266
C         -0.54640       -3.03075        1.46645
H         -0.21919       -3.10567        2.50404
H         -1.49654       -2.49682        1.37939
H         -0.59992       -4.01594        1.00320
H          0.75101        3.73155       -0.07392
H         -0.81350        3.36371       -0.83776
H         -1.12418        4.25115        1.48643
H         -1.73100        2.59843        1.30219
H          0.64692        3.41206        2.78141
H         -0.42916        2.21274        3.10119
H          1.15657        1.61773       -0.85525
H          0.57189        1.29536        0.68829
C         -0.13464        3.08935       -0.02823
C         -0.82359        3.20720        1.33093
N          0.31017        1.69304       -0.22495
N          0.07116        2.69141        2.36387
H         -0.44376        1.08479       -0.60382
H          4.78136        1.67973       -1.29067
H          3.68534        2.39954       -0.09914
H          4.65822        0.28887        0.75020
H          2.90705        0.15420        0.58840
H          4.87548       -1.12957       -1.11778
H          3.46067       -1.71124       -0.50520
H          2.81624        2.19006       -2.47005
H          2.72897        0.57808       -2.16410
C          3.81614        1.54970       -0.77949
C          3.83779        0.24577        0.01980
N          2.69665        1.50424       -1.73156
N          3.91710       -0.88994       -0.89313
