43
2msa1eda1tma_207.log	Energy: -1062673.6778510
S         -2.20019        0.64019        1.21786
O         -3.54754        0.31454        1.69714
O         -2.16114        1.51966        0.02312
O         -1.35451       -0.58717        0.98946
H         -1.29846       -0.94255       -0.60799
C         -1.35829        1.52288        2.52448
H         -1.89965        2.45206        2.70620
H         -1.36475        0.89815        3.41842
H         -0.33741        1.71837        2.19335
S          1.60227        1.51525       -0.89742
O          1.05653        0.56247       -1.86453
O          3.00211        1.90120       -1.07491
O          1.41288        0.97035        0.56767
H          2.26268        0.37990        0.83300
C          0.55074        2.93973       -0.85679
H          0.58047        3.38055       -1.85412
H         -0.45811        2.59762       -0.59849
H          0.94465        3.63616       -0.11663
H          3.14867       -1.91924       -0.32506
H          4.35124       -2.35921        0.90432
H          2.47142       -3.63462        1.46575
H          2.43323       -2.29388        2.60909
H          0.25916       -2.70008        1.60884
H          0.73732       -1.27813        1.03424
H          3.80891       -0.31738        2.05276
H          4.16712        0.04985        0.49715
C          3.39084       -1.85589        0.73981
C          2.30026       -2.55540        1.54316
N          3.49004       -0.42450        1.09284
N          0.96939       -2.27003        1.02535
N         -1.58771       -1.39484       -1.52359
C         -1.95784       -0.32459       -2.48416
H         -2.69750        0.32143       -2.01124
H         -1.06320        0.25737       -2.70082
H         -2.35218       -0.78949       -3.39152
C         -0.46230       -2.22560       -2.01687
H          0.35744       -1.56001       -2.28384
H         -0.13201       -2.87751       -1.20699
H         -0.79918       -2.79932       -2.88444
C         -2.76323       -2.21738       -1.14761
H         -2.44793       -2.95826       -0.41335
H         -3.51316       -1.56848       -0.69348
H         -3.16156       -2.70560       -2.04017
