29
2msa1a1ma_86.log	Energy: -929298.4259249
S         -2.22391       -0.15061       -0.06331
O         -1.68565       -1.40255        0.46884
O         -1.26605        0.57511       -0.97328
O         -2.73379        0.80488        0.96793
H         -1.70600        2.02780        1.06655
C         -3.62878       -0.56261       -1.07836
H         -3.29026       -1.24601       -1.85726
H         -4.36919       -1.04465       -0.43965
H         -4.02846        0.35394       -1.51171
S          2.09865        0.79969       -0.22942
O          1.30793        1.22708        0.94493
O          2.76258        1.85466       -0.97522
O          1.18379       -0.05763       -1.17854
H          0.18775        0.16044       -1.08116
C          3.25739       -0.41865        0.31270
H          3.93965        0.08007        1.00215
H          2.68060       -1.22118        0.79703
H          3.79310       -0.77728       -0.56689
N         -0.92306        2.74207        0.94513
H         -0.01448        2.21390        0.96334
H         -0.94152        3.46086        1.66281
H         -1.02491        3.15726        0.02141
N          1.06313       -2.62886        1.10975
H          1.02040       -3.25302        1.90832
C          1.12742       -3.39564       -0.13399
H          0.27856       -4.07582       -0.29208
H          1.15893       -2.69595       -0.97372
H          2.04944       -3.98626       -0.15666
H          0.20331       -2.08292        1.11751
