35
2msa1ma1dma_209.log	Energy: -978618.8128042
S         -2.78021        0.17435       -0.05857
O         -2.20845        1.51814       -0.26173
O         -2.62612       -0.39191        1.27408
O         -2.24446       -0.80172       -1.15369
H         -1.19716       -0.90526       -1.07936
C         -4.49627        0.23287       -0.50119
H         -4.98152        0.90628        0.20585
H         -4.57997        0.61060       -1.51957
H         -4.90348       -0.77426       -0.41645
S          1.03424       -1.53850        0.15345
O          2.19537       -2.27291       -0.33805
O          0.21686       -0.92250       -0.96518
O          1.34811       -0.47842        1.15738
H          0.88092        0.97951        0.63114
C         -0.05398       -2.69048        0.96713
H         -0.33342       -3.45707        0.24369
H          0.49828       -3.13249        1.79676
H         -0.93003       -2.14861        1.32845
N          4.26605        0.05544       -1.01629
H          3.67515        0.45598       -1.73635
C          4.34764        0.92191        0.15011
H          3.39701        1.06001        0.69281
H          5.05970        0.49955        0.86480
H          4.73504        1.90364       -0.14563
H          3.85270       -0.84099       -0.77133
N          0.51907        1.90731        0.27172
C          1.13411        2.19017       -1.04352
C          0.74634        2.94779        1.29362
H         -0.49907        1.77003        0.13114
H          2.20458        2.34797       -0.90570
H          0.96261        1.32360       -1.68264
H          0.67472        3.08151       -1.47387
H          1.81941        3.05315        1.46078
H          0.32647        3.89494        0.95083
H          0.26006        2.64000        2.21922
