42
2msa2eda_314.log	Energy: -1072757.3109545
S         -1.86785       -1.27057       -1.05933
O         -3.10253       -1.30932       -1.83287
O         -2.00669       -1.52249        0.39762
O         -1.10517        0.04068       -1.25158
H         -0.87716        0.60885        0.33382
C         -0.76211       -2.52014       -1.69285
H         -1.21492       -3.49196       -1.49358
H         -0.66488       -2.36907       -2.76909
H          0.20788       -2.42717       -1.19678
S          2.42765       -1.04570        0.87711
O          3.73504       -1.16290        1.50809
O          2.29892       -1.59363       -0.49394
O          1.90324        0.39045        0.87509
H          1.82074        0.64481       -0.87584
C          1.25622       -1.95205        1.88162
H          1.60651       -2.98356        1.93440
H          1.24431       -1.51614        2.88203
H          0.26799       -1.91825        1.41516
H         -0.18850        2.60711       -1.06204
H          0.59652        3.94913       -1.89461
H          0.75930        2.00670       -3.30837
H          2.39160        2.35773       -2.66812
H          0.47123        0.27519       -1.74136
H          2.00454        0.01641       -2.38373
H          1.48151        4.05279        0.25480
H          1.90268        2.45540        0.30041
C          0.79102        3.00288       -1.38176
C          1.37867        2.04343       -2.40956
N          1.73977        3.25342       -0.30864
N          1.43830        0.67070       -1.84609
H         -1.29001        2.24667        2.79071
H         -1.13129        2.88456        1.13144
H         -3.54432        2.61075        1.89009
H         -3.16495        1.69212        0.42942
H         -4.24649        0.61060        2.66128
H         -3.33955       -0.27069        1.60421
H          0.30107        0.85543        1.47196
H         -1.11685        0.02889        1.84611
C         -1.48721        2.04595        1.73556
C         -2.97310        1.75990        1.50911
N         -0.72947        0.83756        1.34718
N         -3.33961        0.54004        2.22057
