38
2msa1ma1tma_31.log	Energy: -1003283.5225142
S          1.81832       -1.51196       -0.13104
O          2.85743       -1.32637        0.88684
O          2.20885       -1.21650       -1.51775
O          0.57027       -0.71117        0.24114
C          1.28392       -3.21358       -0.06969
H          0.48407       -3.35282       -0.79769
H          2.14355       -3.83534       -0.32143
H          0.93747       -3.43027        0.94117
S         -2.71390       -0.19674       -0.04241
O         -2.76828       -0.12149       -1.49733
O         -2.29596        1.01065        0.66797
O         -1.83380       -1.41944        0.42250
H         -0.83404       -1.18316        0.35560
C         -4.29057       -0.73574        0.57304
H         -4.53812       -1.68336        0.09546
H         -4.22118       -0.84292        1.65489
H         -5.01467        0.03305        0.30210
N          1.89540        1.47589        2.10142
H          2.22852        0.54658        1.84484
C          0.61741        1.36724        2.80878
H          0.65363        0.74214        3.71227
H          0.27192        2.36475        3.10056
H         -0.13184        0.94338        2.13588
H          2.60055        1.86950        2.71645
N          0.85213        1.76782       -0.96618
C          0.21661        1.34263       -2.24165
H          0.72536        0.44001       -2.58252
H         -0.83757        1.12691       -2.06333
H          0.32345        2.14828       -2.97159
C          0.15615        2.91961       -0.34073
H         -0.87917        2.63653       -0.14854
H          0.66468        3.13737        0.59869
H          0.20824        3.77120       -1.02317
C          2.30452        2.03069       -1.14387
H          2.72187        2.25226       -0.16182
H          2.76546        1.13143       -1.55427
H          2.42295        2.87570       -1.82619
H          0.76506        0.95153       -0.32101
