37
2msa1ma1eda_427.log	Energy: -1013352.9784782
S         -1.90959       -1.58674        0.22634
O         -1.34847       -2.41868       -0.87176
O         -2.70869       -0.43587       -0.19673
O         -0.79667       -1.19868        1.18163
H         -0.52986        0.23128        1.42856
C         -2.96953       -2.66265        1.17213
H         -3.77149       -2.99769        0.51383
H         -2.38058       -3.50887        1.52535
H         -3.37138       -2.09117        2.00880
S          0.89994        1.68411        0.65026
O          2.19751        1.41888        1.26825
O         -0.26152        1.21903        1.58843
O          0.72570        1.10683       -0.69736
H          1.08237       -0.58473       -0.88339
C          0.57073        3.41586        0.56541
H         -0.43638        3.50851        0.13436
H          0.62981        3.82026        1.57596
H          1.33812        3.85278       -0.07454
N         -2.28255        2.64655       -0.78321
H         -2.34895        1.71376       -0.37863
C         -2.02415        2.52229       -2.21781
H         -2.77742        1.93638       -2.76323
H         -1.96849        3.51765       -2.67075
H         -1.05438        2.03732       -2.35590
H         -3.18311        3.08769       -0.62738
H          2.62171       -3.12867       -1.08949
H          2.32711       -2.04613       -2.46203
H          4.56460       -1.65224       -1.45019
H          3.55316       -0.21622       -1.38099
H          3.35765       -0.36448        0.90749
H          3.94090       -1.94722        0.97569
H          0.35333       -2.08246       -1.01200
H          1.27278       -1.70528        0.28570
C          2.47879       -2.08424       -1.38054
C          3.67971       -1.22176       -0.96633
N          1.23970       -1.60352       -0.73223
N          3.90838       -1.08408        0.45120
