38
2msa2dma_111.log	Energy: -1003284.6711264
S         -2.66025        1.27431        0.18684
O         -3.94902        1.96381        0.14728
O         -2.28465        0.54724       -1.05631
O         -2.50110        0.36086        1.37719
H         -1.97332       -1.01067        0.85420
C         -1.40003        2.52694        0.41287
H         -1.47005        3.22861       -0.41987
H         -1.59638        3.03916        1.35572
H         -0.42889        2.02852        0.42800
S          1.44223       -0.47019       -1.03863
O          0.76158       -1.77635       -0.89498
O          2.87767       -0.56207       -1.37352
O          1.25140        0.37748        0.20572
H          2.53692        0.64523        0.86314
C          0.61228        0.41125       -2.33814
H          0.70508       -0.18247       -3.24830
H         -0.43635        0.53400       -2.04558
H          1.10389        1.37707       -2.46050
N         -1.64032       -1.96095        0.48759
C         -2.67005       -2.50306       -0.42128
C         -1.31075       -2.83186        1.62749
H         -0.77440       -1.78359       -0.05730
H         -3.58718       -2.67981        0.14357
H         -2.85467       -1.75145       -1.18908
H         -2.31276       -3.43550       -0.86332
H         -2.20880       -2.99727        2.22514
H         -0.92096       -3.78498        1.26440
H         -0.55558       -2.33448        2.23657
N          3.52784        0.81089        1.30940
C          4.30533        1.67610        0.39121
C          4.14971       -0.51541        1.53863
H          3.38304        1.28605        2.19890
H          4.34772        1.16823       -0.57308
H          3.78509        2.62787        0.28054
H          5.30777        1.83871        0.79197
H          4.21720       -1.01444        0.57098
H          5.13765       -0.39110        1.98631
H          3.50457       -1.09488        2.19947
