34
2msa1a1eda_306.log	Energy: -988689.4492139
S          2.09960       -1.47214        0.06571
O          2.64279       -2.71038       -0.46437
O          1.63429       -0.52181       -1.03683
O          3.02484       -0.69734        0.95474
H          3.20388        0.74406        0.43890
C          0.65889       -1.83857        1.04334
H         -0.11092       -2.27354        0.39982
H          0.97163       -2.54426        1.81369
H          0.30128       -0.90907        1.49005
S         -0.38773        1.90056       -0.01639
O          0.74720        2.80836       -0.28645
O         -0.43693        1.35124        1.33591
O         -0.40955        0.76695       -1.08091
H          0.50224        0.14965       -1.04222
C         -1.90274        2.73839       -0.38192
H         -1.97802        3.57396        0.31484
H         -1.86363        3.08906       -1.41280
H         -2.70605        2.01202       -0.21936
N          3.28429        1.69918       -0.06018
H          3.55722        1.50713       -1.02214
H          3.97373        2.29612        0.38815
H          2.35017        2.16392       -0.07725
H         -4.04255       -1.03418       -1.45922
H         -4.03385       -2.72856       -0.93708
H         -4.97465       -1.20748        0.76521
H         -3.56669       -2.11510        1.35094
H         -3.63440        0.34569        1.83604
H         -2.26865       -0.14504        1.12174
H         -1.92607       -2.40318       -1.80062
H         -1.71784       -0.95137       -1.09334
C         -3.57530       -1.74905       -0.76359
C         -3.88955       -1.31860        0.66342
N         -2.13083       -1.87113       -0.96208
N         -3.26712       -0.02713        0.96672
