40
2msa1dma1eda_433.log	Energy: -1038012.9340259
S         -0.30988       -1.94774        0.28523
O         -1.14731       -3.09123       -0.06514
O         -0.41866       -0.84483       -0.74286
O          1.12791       -2.28304        0.53248
H          2.28487       -1.38764       -0.00462
C         -0.92578       -1.25527        1.80489
H         -1.98549       -1.04553        1.64399
H         -0.79151       -2.00483        2.58557
H         -0.36128       -0.34716        2.02219
S          1.10276        2.12905        0.12084
O          2.22299        3.00913       -0.16441
O          1.11258        1.38084        1.37803
O          1.04421        1.08714       -1.07555
H          0.38400        0.27453       -0.88320
C         -0.43009        3.00718       -0.02407
H         -0.42656        3.77072        0.75550
H         -0.45501        3.47037       -1.01073
H         -1.27362        2.31827        0.12154
N          3.08231       -0.80662       -0.41426
C          3.77352       -1.61387       -1.43976
C          3.94506       -0.32014        0.68606
H          2.60709       -0.00627       -0.85518
H          4.20627       -2.49397       -0.96282
H          3.04241       -1.93020       -2.18370
H          4.55828       -1.02016       -1.91136
H          4.37679       -1.18132        1.19743
H          4.73427        0.31393        0.27925
H          3.32355        0.25482        1.37333
H         -5.24375        1.07106       -0.42482
H         -4.04654        1.92443       -1.40997
H         -4.14928       -0.41860       -2.07782
H         -2.56764       -0.07268       -1.35550
H         -4.73058       -1.53612       -0.05401
H         -3.17519       -1.99484       -0.30049
H         -3.86303        2.34949        1.02990
H         -3.38810        0.79227        1.19916
C         -4.16300        1.16728       -0.62576
C         -3.63449       -0.16855       -1.13776
N         -3.40259        1.57985        0.55516
N         -3.77560       -1.19687       -0.10555
