37
2msa1ma1eda_571.log	Energy: -1013346.9237523
S         -2.22047       -0.00786       -0.74396
O         -0.91253       -0.63814       -1.00222
O         -2.52236        1.14197       -1.62972
O         -2.34201        0.42365        0.70729
H         -1.89342        1.97389        0.66601
C         -3.46825       -1.25201       -0.97170
H         -3.44958       -1.54389       -2.02238
H         -3.20209       -2.09760       -0.33073
H         -4.43425       -0.82377       -0.70515
S          2.89658       -0.24609       -0.45947
O          4.28481       -0.65393       -0.36650
O          2.58007        1.18376       -0.52544
O          2.10955       -0.87531        0.75765
H          1.38168       -0.23742        1.12418
C          2.15180       -1.04861       -1.85980
H          2.64002       -0.65417       -2.75189
H          2.33414       -2.11927       -1.76570
H          1.08251       -0.82975       -1.85604
N         -1.19109       -3.14987        0.74716
H         -0.69951       -4.03415        0.67911
C         -1.03185       -2.57996        2.08268
H          0.01006       -2.35022        2.35576
H         -1.61809       -1.65771        2.14300
H         -1.43381       -3.27323        2.82772
H         -0.78562       -2.52126        0.05726
H          0.16348        2.79302        2.40458
H          1.67962        2.30633        1.62744
H          0.58931        3.47603       -0.07558
H          0.27591        1.78293       -0.47491
H         -1.63593        3.67715        0.76958
H         -1.76119        2.84479       -0.68971
H          0.49746        0.51268        2.87728
H         -0.60036        0.43652        1.65163
C          0.59935        2.14347        1.62942
C          0.08899        2.56706        0.25994
N          0.35357        0.71911        1.89325
N         -1.38799        2.82599        0.26984
