35
2msa1a1tma_22.log	Energy: -978627.1311137
S         -0.38387        2.12810       -0.03003
O         -1.38736        2.95861       -0.68556
O         -0.18069        0.80707       -0.75559
O         -0.63182        1.85372        1.41197
H         -0.73868        0.21317        1.71478
C          1.19124        2.95970       -0.11784
H          1.41921        3.14172       -1.16864
H          1.09200        3.90330        0.41936
H          1.94737        2.32453        0.34769
S          2.49482       -0.95021        0.04343
O          1.53205       -1.91934        0.59295
O          2.95584        0.08985        0.95287
O          1.93451       -0.33396       -1.27839
H          1.04183        0.20242       -1.08133
C          3.88327       -1.85223       -0.59445
H          4.35887       -2.34159        0.25591
H          3.52139       -2.58527       -1.31445
H          4.56460       -1.14154       -1.06139
N         -0.85408       -0.83195        1.72043
H         -1.65921       -1.06782        1.04520
H         -1.04777       -1.16279        2.66066
H          0.01912       -1.25977        1.37008
N         -2.87053       -1.34527       -0.10744
C         -2.16824       -1.77601       -1.31792
H         -1.46574       -0.99586       -1.61688
H         -1.61009       -2.69417       -1.11120
H         -2.87143       -1.96999       -2.14402
C         -3.79786       -2.37120        0.35828
H         -3.25519       -3.29956        0.56093
H         -4.28327       -2.04047        1.28135
H         -4.58162       -2.58438       -0.38702
C         -3.56138       -0.07268       -0.33218
H         -4.00853        0.27500        0.60336
H         -2.84980        0.68042       -0.67494
H         -4.35823       -0.17610       -1.08622
