40
2msa1dma1eda_72.log	Energy: -1038034.7903188
S         -2.62755       -0.62279        0.46421
O         -2.79908       -1.67494       -0.55372
O         -3.12968        0.71472        0.08091
O         -1.19903       -0.56134        0.94354
C         -3.57163       -1.11595        1.89761
H         -4.61810       -1.18981        1.60055
H         -3.19859       -2.08149        2.23953
H         -3.44402       -0.35855        2.67125
S          3.01561        0.07027        0.29847
O          2.92817        1.52795        0.00828
O          2.95093       -0.77300       -0.93161
O          2.01213       -0.36427        1.29775
C          4.63500       -0.19262        0.99684
H          5.37585        0.13775        0.26863
H          4.70776        0.39175        1.91416
H          4.74870       -1.25631        1.20655
N          0.41751       -1.87820       -0.87439
C          0.26710       -3.31151       -0.55384
C         -0.10207       -1.50349       -2.20831
H         -0.10473       -1.34443       -0.14169
H          0.80449       -3.90791       -1.29301
H          0.68371       -3.48481        0.43840
H         -0.79671       -3.55419       -0.56268
H          0.44341       -2.06115       -2.97129
H         -1.17036       -1.71962       -2.24074
H          0.06354       -0.43554       -2.35795
H          1.41778       -1.58231       -0.81885
H         -1.61877        2.38840        1.07158
H         -0.28305        3.56062        1.25982
H         -2.03421        4.14604       -0.53004
H         -0.37087        4.09663       -1.13866
H         -2.28875        1.87748       -1.40087
H         -1.60174        2.76946       -2.62723
H          0.03857        0.91508        0.87990
H         -0.04871        1.45329       -0.67768
C         -0.75236        2.84183        0.58732
C         -1.18416        3.48266       -0.73626
N          0.19659        1.74274        0.28535
N         -1.46899        2.41432       -1.68912
H          1.21123        1.96941        0.29307
