26
2msa2a_05.log	Energy: -904652.5747758
S          2.18041       -0.40288       -0.01910
O          1.81103       -0.05987        1.38072
O          2.73899        0.71926       -0.78566
O          1.03368       -1.05928       -0.74081
C          3.43756       -1.65894        0.09438
H          3.03414       -2.49791        0.66104
H          3.69863       -1.96395       -0.91906
H          4.29964       -1.22516        0.60114
S         -2.24434       -0.30188       -0.03880
O         -2.04113        0.41512       -1.29420
O         -2.27210        0.52029        1.18077
O         -1.22932       -1.46863        0.11903
H         -0.24357       -1.25633       -0.22450
C         -3.77044       -1.20545       -0.10628
H         -4.57227       -0.47034       -0.17919
H         -3.74845       -1.84802       -0.98586
H         -3.86265       -1.78985        0.80870
N          0.08134        2.05957        1.45456
H          0.21611        2.81605        2.11746
H         -0.84783        1.62257        1.56286
H          0.16216        2.39229        0.42935
H          0.80149        1.31024        1.57949
N          0.30542        2.46236       -1.24563
H          0.26273        3.33000       -1.76893
H         -0.42274        1.84048       -1.59850
H          1.20605        2.01384       -1.42749
