42
2msa2eda_70.log	Energy: -1072769.9893817
S          2.27539        0.17313       -0.88204
O          2.13212       -1.16429       -1.51189
O          1.67071        0.20099        0.48536
O          1.76486        1.28813       -1.71515
C          4.02360        0.44813       -0.67669
H          4.41914       -0.33526       -0.02963
H          4.49020        0.40978       -1.66105
H          4.15797        1.43170       -0.22527
S         -2.86018       -0.27289       -0.34898
O         -1.79013       -0.08592        0.69138
O         -2.70720       -1.57657       -1.04046
O         -2.95178        0.89731       -1.24726
C         -4.40430       -0.35841        0.53911
H         -4.54946        0.58491        1.06564
H         -5.19838       -0.51646       -0.19107
H         -4.35477       -1.19066        1.24118
H         -0.25738        4.20985       -0.25560
H         -1.74679        3.57092        0.49247
H         -0.12245        4.21930        2.20569
H         -0.45244        2.48416        2.26326
H          1.97591        3.30977        2.33076
H          1.66645        2.09468        1.27404
H         -1.28357        2.05850       -1.16629
H          0.38100        2.01279       -0.90001
C         -0.67956        3.39563        0.33636
C          0.03820        3.27628        1.67390
N         -0.55069        2.14287       -0.45052
N          1.46721        3.07178        1.48792
H         -0.73281        1.31330        0.14791
H         -0.66395       -3.66356        1.10334
H          0.20619       -4.26332       -0.32324
H          1.66423       -4.35296        1.66353
H          2.30845       -3.23183        0.46961
H          1.64973       -1.40532        1.77408
H          0.83847       -2.36417        2.86577
H         -1.02540       -2.20406       -0.78317
H         -0.23046       -1.41782        0.38743
C          0.17152       -3.46746        0.42515
C          1.49715       -3.37871        1.19035
N         -0.11853       -2.19676       -0.27816
N          1.59121       -2.33326        2.18805
H          0.66428       -1.92042       -0.90899
