40
2msa1dma1eda_12.log	Energy: -1038038.0425121
S          2.39184       -0.97435       -0.41951
O          2.33128        0.23833       -1.28087
O          1.50957       -2.07136       -0.91047
O          2.17102       -0.66986        1.01138
C          4.05716       -1.59253       -0.58721
H          4.23505       -1.80717       -1.64093
H          4.74435       -0.82576       -0.22902
H          4.14566       -2.49905        0.01171
S         -2.80594        0.49873       -0.34091
O         -2.23575        1.64920       -1.09580
O         -1.93453        0.14438        0.82843
O         -3.14271       -0.67095       -1.16352
C         -4.33228        1.10811        0.35797
H         -4.79278        0.30123        0.92853
H         -4.10454        1.95691        1.00286
H         -4.97934        1.41200       -0.46519
N         -0.75566       -2.31034        0.57442
C         -1.72946       -3.25860       -0.00512
C         -0.20846       -2.71682        1.88531
H          0.05380       -2.18945       -0.08095
H         -2.53447       -3.42519        0.71304
H         -2.14511       -2.81347       -0.90864
H         -1.22339       -4.20027       -0.22468
H         -1.01437       -2.74045        2.62092
H          0.24266       -3.70637        1.79174
H          0.55718       -1.99390        2.16927
H         -1.20782       -1.36857        0.67187
H         -0.22717        2.84284        1.18626
H          0.47344        1.21211        1.24583
H          2.08183        2.89425        2.17885
H          2.70695        2.09622        0.73240
H          1.67982        4.83751        0.87199
H          3.06123        4.28942        0.18721
H          1.04605        1.34307       -1.01821
H         -0.58752        1.88889       -0.91013
C          0.57810        2.20550        0.81103
C          1.95115        2.79890        1.09348
N          0.41001        2.09110       -0.65866
N          2.09062        4.06202        0.36355
H          0.71111        2.98040       -1.06905
