32
2msa2ma_117.log	Energy: -953960.7119800
S          1.66916       -1.38837       -0.17113
O          2.85135       -2.12202        0.22217
O          1.26998       -0.45444        1.04031
O          0.48122       -2.16983       -0.56937
H         -1.18114       -2.15337       -0.36010
C          2.04342       -0.25666       -1.48196
H          2.82750        0.41385       -1.11455
H          2.37910       -0.85448       -2.33033
H          1.13159        0.29921       -1.71469
S         -1.71399        1.15073       -0.25093
O         -2.89164        0.36947       -0.73019
O         -0.72611        1.46869       -1.28713
O         -1.10372        0.45864        0.93934
H          0.33283       -0.06291        0.95190
C         -2.36250        2.68879        0.36951
H         -2.83759        3.20936       -0.46222
H         -3.08586        2.46948        1.15444
H         -1.52668        3.26949        0.76053
N          3.26405        1.90802        0.62158
H          2.96301        1.18269        1.26528
C          2.18741        2.87144        0.40138
H          1.82255        3.36666        1.31428
H          2.53053        3.64510       -0.29167
H          1.33959        2.36775       -0.07296
H          4.07918        2.35626        1.02414
N         -2.21164       -2.17709       -0.19186
H         -2.58104       -1.22859       -0.47844
C         -2.47869       -2.42039        1.24572
H         -3.55459       -2.47403        1.41072
H         -1.99944       -3.34986        1.55220
H         -2.05862       -1.57821        1.79463
H         -2.61690       -2.89589       -0.78709
