22
2msa1a_08.log	Energy: -869140.0711117
S          1.69768        0.45858       -0.18868
O          0.69546        0.15183       -1.21330
O          2.94306        1.06518       -0.64733
O          2.02617       -0.85217        0.61681
H          3.03052       -1.10793        0.49868
C          0.93466        1.47832        1.04367
H          0.60011        2.38660        0.54056
H          0.08120        0.93429        1.45490
H          1.67923        1.70420        1.80647
S         -2.53743       -0.06213        0.08578
O         -2.85841        1.30634       -0.28231
O         -1.79622       -0.28312        1.32353
O         -1.79096       -0.80134       -1.11290
H         -0.85101       -0.48080       -1.17161
C         -4.01943       -1.04105        0.09675
H         -4.65355       -0.63701        0.88651
H         -4.50410       -0.94070       -0.87395
H         -3.75316       -2.07676        0.30393
N          4.55317       -1.34297        0.21748
H          4.74048       -2.12246       -0.40529
H          5.15044       -1.43745        1.03253
H          4.79941       -0.48185       -0.26732
