43
2msa1eda1tma_94.log	Energy: -1062679.6901322
S         -0.95026       -2.26121       -0.53389
O         -2.25796       -1.75326       -0.08783
O         -0.28172       -3.21508        0.35112
O         -0.05197       -1.06691       -0.85986
C         -1.19669       -3.05789       -2.11253
H         -1.87363       -3.89804       -1.95439
H         -1.63445       -2.33521       -2.80129
H         -0.23115       -3.40937       -2.47736
S          2.66107        0.68452       -0.49507
O          2.46810        0.63773        0.95786
O          1.91414        1.71599       -1.20493
O          2.40900       -0.73181       -1.12167
H          1.40876       -0.99120       -1.02907
C          4.39476        0.84852       -0.83796
H          4.70759        1.80916       -0.42800
H          4.92041        0.02805       -0.35042
H          4.53526        0.82226       -1.91814
H         -1.54738        0.97028        2.99835
H         -2.06516       -0.36831        1.91904
H         -0.79650       -1.17824        3.91404
H         -0.00752       -1.60781        2.39930
H          1.24874       -0.37441        4.41062
H          1.68113       -0.08501        2.85879
H         -1.14433        1.50494        0.66432
H          0.35375        1.26345        1.48915
C         -1.21107        0.17504        2.32848
C         -0.25763       -0.76438        3.05699
N         -0.51627        0.81788        1.18431
N          0.91487       -0.02322        3.52270
H         -0.26510        0.10526        0.47036
N         -2.22372        2.22882       -0.46892
C         -1.55762        1.93718       -1.74066
H         -0.59426        2.45167       -1.78108
H         -1.36370        0.86367       -1.81147
H         -2.17344        2.25128       -2.59955
C         -3.46975        1.47131       -0.34910
H         -3.25538        0.40054       -0.41920
H         -3.93054        1.67293        0.62291
H         -4.18969        1.74628       -1.13780
C         -2.44702        3.66012       -0.30384
H         -2.89625        3.85439        0.67443
H         -1.49242        4.19010       -0.36189
H         -3.11829        4.06333       -1.08074
