26
2msa2a_40.log	Energy: -904638.1098229
S          2.58335        0.40611        0.16193
O          3.97501        0.70347        0.44881
O          1.87826       -0.54398        1.03417
O          2.42305       -0.06311       -1.31900
H          1.84584       -0.98828       -1.39240
C          1.67375        1.93817        0.17641
H          1.77527        2.36532        1.17518
H          2.11681        2.60284       -0.56559
H          0.63029        1.72218       -0.05603
S         -2.05529       -0.55002        0.36399
O         -1.62133       -1.73289       -0.37218
O         -3.48938       -0.35673        0.56356
O         -1.46856        0.73992       -0.34562
H         -2.24384        1.33661       -0.70392
C         -1.21174       -0.51688        1.92276
H         -1.52511       -1.40813        2.46819
H         -0.13475       -0.53433        1.73020
H         -1.51172        0.38608        2.45423
N         -3.53003        2.10997       -1.16681
H         -3.70112        2.07010       -2.16667
H         -3.61104        3.07720       -0.87027
H         -4.25242        1.56605       -0.69787
N          1.10777       -2.22331       -1.43692
H          1.52700       -2.84732       -0.75313
H          1.10371       -2.69112       -2.33770
H          0.13955       -2.06256       -1.14591
