22
2msa1a_01.log	Energy: -869151.6204046
S          1.93287       -0.27886       -0.04007
O          0.99160       -1.30944       -0.56032
O          1.49890        0.27216        1.26856
O          2.20330        0.80496       -1.02836
C          3.47300       -1.13196        0.21089
H          3.30448       -1.92568        0.93870
H          3.79101       -1.54512       -0.74622
H          4.20113       -0.41172        0.58377
S         -2.24681       -0.13063       -0.06312
O         -3.66101       -0.33066       -0.27917
O         -1.76288        1.26253       -0.04390
O         -1.47279       -0.94271       -1.16387
H         -0.47874       -1.02785       -0.96923
C         -1.73569       -0.88508        1.46536
H         -2.29490       -0.39183        2.26145
H         -1.98716       -1.94452        1.41651
H         -0.66072       -0.73231        1.58997
N          0.57475        2.61527        0.08588
H          0.53419        3.61949       -0.05746
H         -0.36285        2.16475       -0.02385
H          1.24090        2.12288       -0.56422
H          0.91161        2.36432        1.01943
