40
2msa1dma1eda_544.log	Energy: -1038006.3527819
S          3.26452       -1.12669       -0.03491
O          4.42832       -1.98273       -0.06792
O          3.38423        0.22779       -0.60961
O          2.79517       -0.95966        1.46161
H          2.37148       -0.03683        1.62436
C          1.89021       -1.94310       -0.80605
H          1.80974       -2.93475       -0.35996
H          0.97242       -1.37105       -0.63385
H          2.11573       -2.01675       -1.87068
S         -1.53778        0.39299       -1.03885
O         -2.08956        1.59702       -0.38662
O         -1.01132       -0.61025       -0.08072
O         -0.47499        0.75754       -2.04996
H          0.61865        1.52558       -1.33312
C         -2.84046       -0.38146       -1.96837
H         -3.62447       -0.68144       -1.26275
H         -3.21542        0.34504       -2.68985
H         -2.42066       -1.24973       -2.47727
N         -4.78069       -1.26680        0.62670
C         -4.75783        0.00738        1.33304
C         -3.81654       -2.22030        1.16100
H         -5.71294       -1.66346        0.66810
H         -3.79565        0.50042        1.16248
H         -5.53798        0.66287        0.93602
H         -4.90714       -0.09693        2.42259
H         -2.80430       -1.83713        0.99594
H         -3.94391       -2.40812        2.24198
H         -3.90946       -3.17297        0.63141
H          1.55444        3.58860        0.65470
H         -0.08966        3.29026        0.03133
H         -0.07254        2.52234        2.23226
H         -0.13978        1.08868        1.20917
H          2.39738        2.04596        2.37343
H          1.42747        0.95220        3.08116
H          1.75510        2.76013       -1.50535
H          2.16520        1.43904       -0.59783
C          0.83823        2.81553        0.35692
C          0.50550        1.90897        1.53118
N          1.39249        2.09761       -0.82248
N          1.70091        1.33025        2.17655
