37
2msa1ma1eda_217.log	Energy: -1013364.4963957
S         -2.17066       -1.09546        0.05030
O         -1.36488       -1.38327        1.25252
O         -1.59874       -1.57767       -1.22115
O         -2.51865        0.37166       -0.05234
H         -1.53051        0.90388       -1.35543
C         -3.73677       -1.92308        0.27786
H         -3.54064       -2.99214        0.36470
H         -4.19602       -1.54223        1.19028
H         -4.36504       -1.71564       -0.58842
S          2.47414       -0.73051       -0.50494
O          3.42662       -0.83100       -1.60505
O          1.45248        0.36377       -0.67758
O          3.09076       -0.54769        0.85112
H          2.22209        0.55574        1.57290
C          1.54816       -2.25051       -0.42236
H          2.25747       -3.05406       -0.22075
H          0.79898       -2.16437        0.36645
H          1.04845       -2.40055       -1.37935
N          1.55269        1.19796        2.10495
H          2.10217        1.87829        2.62450
C          0.70069        0.37606        2.99782
H          0.06939        1.02469        3.60753
H          0.07292       -0.26736        2.37619
H          1.33888       -0.23361        3.63739
H          0.94798        1.70216        1.41924
H         -2.13764        3.22293       -0.60282
H         -0.72907        4.25270       -0.31860
H         -0.65151        3.22083       -2.52312
H          0.73816        2.71522       -1.53276
H         -0.76305        0.96825       -2.84975
H          0.12990        0.63520       -1.46734
H         -1.06999        3.03903        1.60234
H         -1.28191        1.62827        0.82819
C         -1.05391        3.21243       -0.41770
C         -0.34605        2.64811       -1.64432
N         -0.72537        2.49101        0.81853
N         -0.66877        1.21015       -1.86706
