40
2msa1dma1eda_171.log	Energy: -1038021.5097084
S         -1.42511       -1.79121        0.57730
O         -1.58328       -2.32712       -0.77562
O         -2.44302       -0.80923        1.00371
O         -0.03907       -1.19655        0.79813
C         -1.50388       -3.15954        1.71975
H         -2.49050       -3.61363        1.62315
H         -0.72655       -3.87478        1.45012
H         -1.35035       -2.77752        2.72884
S          2.74546       -0.19884       -0.66711
O          3.26164        0.36560        0.57884
O          1.81886        0.63656       -1.42893
O          2.12356       -1.61947       -0.41811
H          1.20523       -1.53898        0.04586
C          4.11242       -0.66217       -1.70085
H          4.75195       -1.34227       -1.13915
H          3.71913       -1.13685       -2.59909
H          4.64544        0.25660       -1.94715
N         -2.87402        1.22307       -1.15697
C         -2.62987        0.55826       -2.43744
C         -3.87325        2.28083       -1.24274
H         -3.15965        0.51875       -0.47506
H         -2.14927        1.25905       -3.12830
H         -1.96952       -0.29785       -2.27936
H         -3.55786        0.19475       -2.90278
H         -3.50936        3.07591       -1.90205
H         -4.83552        1.92466       -1.64107
H         -4.04450        2.70972       -0.25155
H         -1.07685        3.06817        1.45604
H         -1.38708        1.40640        2.03560
H          0.55351        2.49291        3.25260
H          1.02874        1.04135        2.36934
H          1.93640        3.69250        1.88726
H          2.47456        2.26856        1.23931
H         -1.36346        1.56187       -0.41115
H          0.31395        2.02599       -0.27741
C         -0.66532        2.05829        1.53783
C          0.68729        2.07520        2.24834
N         -0.46607        1.53420        0.17052
N          1.65315        2.82632        1.45019
H         -0.19937        0.53695        0.24315
