32
2msa1a1dma_138.log	Energy: -953954.6141818
S         -3.22453        0.15212        0.28085
O         -3.31241       -0.45283        1.60340
O         -2.20198       -0.48835       -0.62464
O         -2.99822        1.63596        0.27453
H         -1.55037        1.95022       -0.16488
C         -4.78561       -0.08829       -0.54471
H         -4.97201       -1.16082       -0.60253
H         -5.55502        0.40387        0.05065
H         -4.72517        0.35031       -1.54042
S          1.02021       -0.87601       -0.25267
O          1.06729        0.09461        0.85609
O          0.99306       -0.26311       -1.58461
O         -0.18203       -1.85740       -0.06920
H         -1.07796       -1.35838       -0.22897
C          2.38009       -1.99121       -0.10742
H          3.29208       -1.38069       -0.16801
H          2.30074       -2.48650        0.86047
H          2.31539       -2.70998       -0.92405
N         -0.51678        2.04310       -0.46091
H          0.07964        1.61087        0.26409
H         -0.25355        3.01079       -0.62156
H         -0.35533        1.47882       -1.30180
N          4.71953        0.29398        0.08659
C          4.51610        0.58376        1.50073
C          4.23792        1.36019       -0.78029
H          5.70380        0.12790       -0.09225
H          3.44120        0.63259        1.70287
H          4.93764       -0.22330        2.10621
H          4.97111        1.53580        1.82243
H          3.15433        1.45591       -0.65827
H          4.69469        2.34115       -0.56350
H          4.43188        1.10641       -1.82551
