37
2msa1ma1eda_432.log	Energy: -1013353.6701004
S          1.47434       -2.11308        0.08965
O          1.87284       -3.45829       -0.25659
O          0.63296       -1.54129       -1.11851
O          2.53579       -1.14085        0.41994
H          2.87148        0.42961       -0.09708
C          0.33040       -2.13502        1.44508
H         -0.53816       -2.72550        1.14830
H          0.85055       -2.58542        2.29129
H          0.03172       -1.10539        1.65523
S         -0.19950        1.76859        0.11148
O          0.87839        2.64536        0.65153
O         -0.82071        0.88210        1.11006
O          0.32943        0.99789       -1.07324
H          0.48346       -0.53535       -1.06315
C         -1.46721        2.84105       -0.52188
H         -1.73971        3.53112        0.27741
H         -1.06356        3.38068       -1.37837
H         -2.33069        2.22522       -0.78623
N          3.05407        1.41941       -0.37439
H          2.81015        1.48760       -1.36214
C          4.44468        1.82474       -0.08691
H          4.58554        2.87025       -0.36011
H          4.62648        1.69829        0.97960
H          5.13246        1.19391       -0.64953
H          2.32922        1.99752        0.12631
H         -4.68085       -1.14429        0.97622
H         -5.52065       -0.22197       -0.28704
H         -4.20536       -1.98605       -1.28850
H         -3.56560       -0.39771       -1.75653
H         -1.82943       -1.97925       -1.07123
H         -1.86623       -0.74070       -0.02248
H         -4.59230        1.34091        1.17706
H         -3.09825        0.69249        1.10728
C         -4.53756       -0.43365        0.14745
C         -3.67688       -1.10176       -0.91532
N         -3.95111        0.84031        0.57138
N         -2.39978       -1.54053       -0.35560
