42
2msa2eda_522.log	Energy: -1072742.0375748
S          0.95379       -1.46280       -1.22566
O          1.14424       -0.10461       -1.84878
O         -0.01802       -2.29349       -1.96883
O          0.59092       -1.35045        0.21766
H         -1.09118       -1.53228        0.28699
C          2.56131       -2.20071       -1.30603
H          2.83885       -2.27966       -2.35749
H          3.24769       -1.54385       -0.75481
H          2.49244       -3.18794       -0.84812
S         -1.29341        2.00673       -0.54370
O         -0.29157        2.24473        0.48187
O         -2.41831        1.12167       -0.17172
O         -0.67400        1.52148       -1.87977
H          0.12744        0.79585       -1.81389
C         -2.00570        3.54966       -1.06297
H         -2.51057        3.97678       -0.19608
H         -1.19870        4.19962       -1.39997
H         -2.71429        3.35092       -1.86636
H          3.42580        2.17401        0.82904
H          2.32616        1.10824       -0.05877
H          1.68173        1.12762        2.26090
H          2.31561       -0.46931        1.84994
H          3.76929        1.59133        3.35270
H          3.39708        0.07604        3.83302
H          4.70585        0.71638       -0.57445
H          4.90629        0.18102        0.96440
C          3.12912        1.12069        0.68175
C          2.59543        0.57732        1.99791
N          4.23208        0.27979        0.20915
N          3.64270        0.63816        3.02642
H         -3.89120       -2.60223        0.38168
H         -2.42547       -3.41099        1.00300
H         -3.62790       -2.38441        2.84789
H         -2.09745       -1.53414        2.61766
H         -4.26085       -0.17799        2.87410
H         -3.35339        0.25544        1.58089
H         -1.90551       -2.12081       -0.98017
H         -2.42920       -0.70756       -0.24879
C         -2.91855       -2.44777        0.85276
C         -3.09104       -1.71018        2.17410
N         -2.06966       -1.66241       -0.07612
N         -3.88855       -0.50604        1.99169
