37
2msa1ma1eda_348.log	Energy: -1013357.7080548
S          3.65603       -0.13367       -0.28075
O          3.56469       -1.46967       -0.87483
O          2.76857        0.03377        0.92906
O          3.44597        0.99767       -1.22707
H          1.69472        1.86661       -0.90445
C          5.32018        0.04896        0.34690
H          5.49440       -0.74087        1.07807
H          6.00828       -0.04935       -0.49336
H          5.41529        1.03126        0.80982
S         -1.15512       -0.96130        0.44920
O         -1.29510        0.04168        1.52633
O         -0.86370       -0.31137       -0.87018
O         -2.36425       -1.84408        0.30944
H         -3.22049       -1.20325       -0.84543
C          0.20677       -2.02398        0.85030
H          1.11129       -1.41637        0.95121
H         -0.03476       -2.52622        1.78750
H          0.32436       -2.74196        0.03880
N          0.98215        1.65851       -0.19017
H          0.28263        1.00194       -0.59210
C          0.34494        2.83167        0.42730
H         -0.33393        2.47685        1.20317
H          1.11061        3.47091        0.86742
H         -0.21192        3.39057       -0.32605
H          1.55268        1.08568        0.48814
H         -5.48314        0.65454       -1.51935
H         -5.63204       -0.91730       -0.68778
H         -5.53630        1.06196        0.91245
H         -4.25908       -0.12941        1.18014
H         -3.89947        2.57285        0.41821
H         -2.76459        1.43117        0.82210
H         -3.84462       -0.86990       -2.41420
H         -3.07613        0.30482       -1.50187
C         -4.99079       -0.04679       -0.84071
C         -4.62519        0.63172        0.48438
N         -3.72655       -0.49573       -1.47623
N         -3.58380        1.62744        0.24942
