42
2msa2eda_414.log	Energy: -1072751.6517415
S          1.70857        1.84008        0.10092
O          1.93367        1.12738        1.36411
O          0.46719        2.63287        0.02274
O          1.78570        0.90210       -1.09521
C          3.06988        2.96889       -0.12666
H          3.99696        2.39553       -0.11230
H          2.94102        3.47615       -1.08261
H          3.04793        3.68423        0.69585
S          1.26074       -2.41383       -0.12311
O          1.47240       -3.81636       -0.40908
O         -0.03954       -1.81455       -0.44249
O          2.39780       -1.60741       -0.87496
H          2.19483       -0.61896       -0.90988
C          1.59369       -2.08847        1.59171
H          0.80659       -2.57665        2.16813
H          2.56777       -2.51673        1.82791
H          1.59002       -1.00557        1.74134
H         -1.81613        1.38767       -0.59582
H         -1.69937        2.24257       -2.13387
H         -3.99263        1.24555       -1.70856
H         -3.26280        0.64658       -3.20137
H         -3.35068       -0.80136       -0.64643
H         -3.90683       -1.30032       -2.12636
H          0.19316        0.69807       -1.70784
H         -0.89414       -0.57042       -1.66152
C         -1.86102        1.26404       -1.67922
C         -3.17722        0.62315       -2.10736
N         -0.73565        0.37015       -2.06277
N         -3.18890       -0.76029       -1.65980
H         -0.67579        0.25793       -3.07365
H         -2.90762       -0.40222        3.32613
H         -2.35609       -1.66521        2.21150
H         -0.58326        0.00332        2.68373
H         -0.98952       -0.08309        0.97668
H         -1.84642        2.02892        2.81884
H         -0.95800        2.17016        1.44930
H         -4.56116       -0.69792        1.64110
H         -3.78754        0.71236        1.30455
C         -2.60920       -0.60209        2.28326
C         -1.37352        0.22906        1.95293
N         -3.68105       -0.30019        1.33068
N         -1.71621        1.64884        1.88636
