32
2msa1a1dma_119.log	Energy: -953956.8470237
S          2.89936        0.03929        0.36098
O          2.29138       -1.30381        0.15862
O          2.03058        0.93783        1.16572
O          3.32040        0.68409       -0.91529
H          2.08318        1.81814       -1.32946
C          4.38457       -0.25763        1.29419
H          4.10462       -0.73617        2.23252
H          5.02693       -0.90993        0.70278
H          4.86822        0.70210        1.47576
S         -1.07586       -0.85837       -0.68254
O         -2.32670       -1.46542       -1.08630
O         -0.74313        0.43806       -1.30661
O          0.06827       -1.89367       -0.98695
H          0.96172       -1.61891       -0.59232
C         -1.02889       -0.63371        1.07558
H         -1.86409        0.03983        1.31089
H         -1.16830       -1.61146        1.53775
H         -0.06285       -0.19942        1.34610
N          1.18741        2.30625       -1.08383
H          1.26098        2.43529       -0.06839
H          0.40517        1.62811       -1.24251
H          1.04800        3.17820       -1.58429
N         -3.93007        0.92770        1.12608
C         -4.66418       -0.32467        1.26606
C         -4.11651        1.53444       -0.18663
H         -4.22760        1.57786        1.84563
H         -4.26982       -1.04887        0.54629
H         -4.51787       -0.72829        2.27230
H         -5.74718       -0.21840        1.08576
H         -3.71364        0.86342       -0.95070
H         -5.17503        1.73083       -0.42868
H         -3.56611        2.47801       -0.23896
