35
2msa1ma1dma_152.log	Energy: -978622.5502506
S         -1.95135       -0.94999        0.33159
O         -2.33141        0.41063        0.81810
O         -1.08093       -1.70063        1.24163
O         -1.40038       -0.84762       -1.06406
H          0.07015       -1.18818       -1.50035
C         -3.47856       -1.85549        0.17816
H         -3.92167       -1.93495        1.17103
H         -4.13749       -1.31026       -0.49727
H         -3.24575       -2.84329       -0.21977
S          2.07482       -0.57201       -0.94402
O          3.34694       -0.63897       -1.62762
O          1.01401       -1.32800       -1.83877
O          1.54267        0.76911       -0.62554
H          0.04972        1.56273       -0.71907
C          2.11612       -1.50852        0.55979
H          2.59109       -2.46363        0.33552
H          2.67875       -0.92948        1.29889
H          1.08722       -1.64636        0.90423
N          2.28349        0.66381        3.05061
H          2.41519        0.45767        4.03455
C          0.86587        0.83807        2.73462
H          0.37143        1.66120        3.27312
H          0.76990        1.01192        1.65969
H          0.32172       -0.08493        2.94684
H          2.80951        1.50633        2.84630
N         -0.83694        2.10502       -0.65864
C         -1.42523        2.21607       -2.00982
C         -0.57543        3.39542        0.00725
H         -1.46767        1.51179       -0.05717
H         -0.74096        2.76450       -2.65911
H         -1.58161        1.20563       -2.38697
H         -2.37936        2.74137       -1.94220
H          0.11261        3.98584       -0.59972
H         -1.51712        3.93191        0.13322
H         -0.13079        3.20080        0.98332
