34
2msa1a1eda_327.log	Energy: -988688.6409002
S         -0.74721        1.89260        0.12210
O         -1.83242        2.61024       -0.54766
O         -0.26203        0.69036       -0.62738
O         -1.05286        1.50764        1.53998
H         -0.83440       -0.07756        1.73203
C          0.64902        3.00291        0.22401
H          0.89741        3.32306       -0.78885
H          0.35174        3.86068        0.82821
H          1.48605        2.47312        0.68052
S          2.82242       -0.68712       -0.07867
O          3.08978        0.52917        0.67030
O          1.92181       -1.68883        0.47441
O          4.25258       -1.42474       -0.30806
H          4.91337       -0.96366        0.22889
C          2.36088       -0.33026       -1.74776
H          1.37354        0.14121       -1.67599
H          3.10730        0.34402       -2.16684
H          2.31951       -1.27266       -2.29392
N         -0.62289       -1.11827        1.77883
H         -0.51432       -1.41160        2.74517
H          0.25902       -1.27600        1.27459
H         -1.39194       -1.67751        1.30284
H         -4.53575       -2.45688       -0.46070
H         -4.32322       -1.70865        1.13602
H         -4.48896       -0.02632       -0.73237
H         -3.00658        0.11060        0.18985
H         -3.23637       -0.51352       -2.55247
H         -1.89478       -0.16717       -1.66819
H         -2.73949       -3.54878        0.65253
H         -2.12819       -2.61789       -0.55651
C         -3.84412       -1.87464        0.16497
C         -3.54426       -0.53540       -0.51101
N         -2.57326       -2.58974        0.36369
N         -2.72975       -0.74751       -1.70878
