42
2msa2eda_224.log	Energy: -1072755.6539216
S          0.93883        2.08366        0.48336
O          2.34350        2.30353        0.12145
O          0.67449        1.74039        1.88550
O          0.30701        1.04424       -0.44863
C          0.04906        3.58722        0.11411
H          0.45333        4.37169        0.75428
H          0.20541        3.82937       -0.93724
H         -1.00870        3.42649        0.32594
S         -2.76613       -0.24340       -0.87619
O         -3.32009       -0.13560        0.47015
O         -1.89260       -1.38400       -1.14827
O         -2.04539        1.09075       -1.28802
H         -1.06516        1.10646       -0.93871
C         -4.10388       -0.23135       -2.04438
H         -4.71279       -1.11142       -1.83553
H         -4.68026        0.68126       -1.89509
H         -3.68543       -0.27651       -3.04914
H          0.94036       -2.39114        2.51119
H          1.32489       -0.65122        2.34013
H         -0.68666       -0.98950        3.79627
H         -1.05442       -0.08023        2.33739
H         -2.00730       -2.71558        3.00526
H         -2.60340       -1.61724        1.91987
H          1.28380       -2.04108        0.22313
H         -0.42151       -2.06218        0.45385
C          0.58938       -1.42867        2.12726
C         -0.77696       -1.07160        2.70708
N          0.45121       -1.55610        0.65653
N         -1.76280       -2.05910        2.27595
H          0.36897       -0.61709        0.22088
H          4.07860       -2.45054       -2.13690
H          2.33164       -2.42762       -2.43187
H          3.37708       -0.16701       -2.66750
H          2.12259       -0.19729       -1.43827
H          4.97260        0.00814       -0.95671
H          3.70423        0.77831       -0.24410
H          3.01627       -3.63005       -0.36796
H          3.51606       -2.17300        0.22329
C          3.11494       -2.09258       -1.74374
C          3.12589       -0.56461       -1.67374
N          2.84855       -2.62985       -0.40092
N          4.02599       -0.11381       -0.61503
