42
2msa2eda_253.log	Energy: -1072758.0418085
S         -3.08047       -0.80097        0.11415
O         -1.87346       -1.53671        0.51462
O         -4.29889       -1.54674       -0.11250
O         -2.78163        0.01437       -1.20223
C         -3.36815        0.46521        1.32957
H         -3.57945       -0.03750        2.27439
H         -2.46757        1.08065        1.39696
H         -4.23126        1.04738        1.00644
S          0.20485        1.93210       -0.40618
O          1.66697        1.71997       -0.41099
O         -0.41011        1.70359        0.92464
O         -0.48288        1.13670       -1.47565
H         -1.86202        0.44300       -1.23319
C         -0.07725        3.64192       -0.82189
H          0.39855        4.25737       -0.05825
H          0.36447        3.82763       -1.80094
H         -1.15334        3.81520       -0.84491
H          1.36789       -1.22701        3.45206
H          1.79113       -2.48837        2.26254
H          3.74585       -1.07045        2.90800
H          3.39780       -0.98630        1.17127
H          3.68951        1.17605        2.69375
H          2.63146        1.19093        1.44089
H         -0.26384       -1.28974        1.65456
H          0.54772        0.13031        1.59244
C          1.70346       -1.41125        2.42862
C          3.02873       -0.70365        2.16722
N          0.66833       -0.89153        1.50749
N          2.85558        0.73814        2.32519
H          0.86962       -1.11983        0.47558
H          2.40636       -0.69544       -3.10836
H          3.63382       -1.93654       -2.84066
H          1.39659       -2.88128       -2.74871
H          2.23339       -3.06418       -1.19331
H          0.39910       -0.80512       -1.65727
H         -0.12071       -2.22391       -1.05725
H          4.31010       -0.19887       -1.51482
H          2.82124        0.14686       -0.96013
C          2.84701       -1.35862       -2.34466
C          1.77836       -2.33581       -1.87403
N          3.43434       -0.62257       -1.22814
N          0.70610       -1.63910       -1.15463
