37
2msa1ma1eda_278.log	Energy: -1013360.7764255
S          2.65208       -0.08899       -0.05008
O          4.06904       -0.28947        0.15395
O          2.24686        1.23928        0.69365
O          1.73677       -1.16965        0.36001
H          0.18253       -1.27168        1.21912
C          2.32328        0.26212       -1.75998
H          2.99727        1.06139       -2.06844
H          2.52780       -0.65180       -2.31932
H          1.27839        0.56947       -1.85549
S         -1.21653        1.90237       -0.11877
O         -2.54060        1.30908        0.14430
O         -0.61569        1.56772       -1.41769
O         -0.26884        1.57760        1.02623
H          1.23958        1.37663        0.77057
C         -1.41543        3.67256       -0.05521
H         -2.10036        3.95784       -0.85406
H         -1.82743        3.93621        0.91868
H         -0.43845        4.13317       -0.20283
N         -0.70615       -1.07214        1.71021
H         -0.74045       -0.03631        1.72860
C         -0.74311       -1.68300        3.05104
H         -1.68516       -1.43030        3.53763
H         -0.66124       -2.76602        2.95431
H          0.09006       -1.30916        3.64598
H         -1.50685       -1.39849        1.09523
H         -0.48590       -1.09661       -1.21195
H         -0.61692       -2.14158       -2.62442
H         -2.80558       -1.33377       -2.19926
H         -2.79491       -3.02258       -1.66273
H         -2.98103       -0.60984       -0.07574
H         -3.69489       -2.06523        0.16678
H          0.64394       -3.07465       -0.64391
H         -0.82272       -3.36447        0.02178
C         -0.88519       -2.06028       -1.56508
C         -2.40257       -2.02295       -1.44909
N         -0.33793       -3.21640       -0.85781
N         -2.82002       -1.62054       -0.08850
