42
2msa2eda_351.log	Energy: -1072752.0159543
S          1.58843        0.77118        1.65827
O          1.71416        0.35146        3.04953
O          0.40742        0.12841        0.95282
O          2.79930        0.55579        0.81458
H          2.74092       -0.69129       -0.27082
C          1.25702        2.52059        1.61681
H          2.15075        3.03547        1.97105
H          0.99597        2.80062        0.59152
H          0.41828        2.71154        2.28817
S         -2.73968       -0.37960        0.25587
O         -2.47171       -1.77602       -0.08212
O         -2.50715        0.60807       -0.79820
O         -1.99084        0.03002        1.56870
H         -0.95935        0.08513        1.40573
C         -4.41757       -0.24440        0.82295
H         -5.05772       -0.51561       -0.01703
H         -4.55452       -0.93629        1.65343
H         -4.59610        0.78514        1.13130
H         -0.67827        2.23468       -3.37619
H          0.58727        3.43085       -3.06143
H          1.59913        1.27279       -3.52662
H          1.92345        1.74793       -1.85035
H         -0.12120       -0.21361       -2.65216
H          0.24382        0.24402       -1.12361
H         -0.97113        3.74194       -1.38355
H         -1.10240        2.15857       -1.03179
C          0.09579        2.54087       -2.65178
C          1.13695        1.42878       -2.54423
N         -0.44638        2.87544       -1.33766
N          0.62702        0.14270       -2.06515
H          2.71845       -3.47384       -1.32394
H          3.17204       -2.90987        0.29987
H          0.99297       -3.94301        0.47574
H          0.76133       -2.20123        0.64502
H          0.01319       -3.81647       -1.65150
H         -0.79488       -2.58975       -0.91607
H          3.47223       -1.31199       -1.63397
H          1.79703       -1.01602       -1.60890
C          2.46810       -2.77002       -0.52501
C          1.03040       -2.98726       -0.06643
N          2.64219       -1.39150       -1.05168
N          0.12505       -2.91351       -1.20501
