37
2msa1ma1eda_125.log	Energy: -1013363.1812112
S          0.50304       -2.11380       -0.18057
O         -0.66180       -2.09970        0.72953
O          1.81113       -2.08869        0.49075
O          0.40730       -0.99894       -1.20408
C          0.40503       -3.62004       -1.12974
H          0.48261       -4.45543       -0.43347
H         -0.55407       -3.63849       -1.64775
H          1.23067       -3.63017       -1.84111
S         -2.33921        1.05451       -0.61128
O         -3.28609        1.99741       -1.16952
O         -1.17812        1.55994        0.12520
O         -1.83583        0.13259       -1.79512
H         -0.97483       -0.34295       -1.55499
C         -3.19608       -0.08956        0.44771
H         -3.55410        0.47358        1.31086
H         -4.03444       -0.50317       -0.11278
H         -2.48973       -0.86995        0.74065
N          0.35675        0.07722        2.66737
H         -0.13534       -0.67587        2.18178
C         -0.59066        0.94740        3.37039
H         -1.23586        0.40966        4.07661
H         -0.04384        1.71695        3.92233
H         -1.21590        1.44797        2.62753
H          0.98818       -0.37925        3.31848
H          3.43070        1.42367        1.17394
H          3.18629       -0.16781        0.41181
H          4.61646        1.28675       -1.03962
H          3.07880        0.91419       -1.82257
H          3.79719        3.47778       -0.61116
H          3.12110        3.18068       -2.07213
H          1.11086        0.80341        1.30482
H          1.28441        2.05718        0.13428
C          2.99426        0.90269        0.31606
C          3.53373        1.46486       -0.99282
N          1.53100        1.09171        0.36278
N          3.15376        2.87213       -1.10855
H          1.06844        0.47941       -0.33293
