38
2msa2dma_201.log	Energy: -1003272.3192676
S          2.40161        1.04659       -0.02981
O          2.10672       -0.39685        0.29453
O          2.00648        1.42230       -1.38992
O          3.83950        1.34301        0.29007
H          4.68688       -0.12008        0.35193
C          1.42831        2.01048        1.10546
H          0.37347        1.77808        0.94031
H          1.72517        1.75148        2.12198
H          1.63062        3.06234        0.90102
S         -2.18335        0.17971       -0.40866
O         -1.75026        1.07642        0.65978
O         -3.23146        0.67048       -1.30639
O         -2.64769       -1.20010        0.20089
H         -3.68214       -1.15813        0.45615
C         -0.77129       -0.33082       -1.34731
H         -0.33369        0.56307       -1.79517
H         -0.04215       -0.77769       -0.66903
H         -1.10528       -1.03382       -2.10982
N          4.62943       -1.16913        0.26086
C          5.34072       -1.87091        1.34123
C          5.01516       -1.55402       -1.11130
H          3.58221       -1.23723        0.35608
H          6.41148       -1.67592        1.26063
H          4.97107       -1.50309        2.29856
H          5.15667       -2.94385        1.26336
H          6.07618       -1.34960       -1.26314
H          4.81473       -2.61585       -1.26320
H          4.42109       -0.96050       -1.80730
N         -5.14935       -1.02849        0.76479
C         -5.88369       -1.17833       -0.49716
C         -5.35429        0.28745        1.38481
H         -5.43410       -1.75566        1.41491
H         -5.48104       -0.45781       -1.21334
H         -5.72438       -2.18423       -0.89203
H         -6.96047       -1.00515       -0.37088
H         -4.98192        1.05377        0.70077
H         -6.41377        0.48088        1.59708
H         -4.77920        0.34621        2.31109
