37
2msa1ma1eda_10.log	Energy: -1013376.4593743
S         -2.76178        0.29449       -0.20686
O         -2.90333       -1.02451       -0.88268
O         -2.27538        1.36868       -1.11617
O         -1.95157        0.19879        1.03219
C         -4.41120        0.78077        0.26749
H         -4.80825        0.02506        0.94542
H         -4.35149        1.75009        0.76257
H         -5.01743        0.84572       -0.63614
S          2.27319       -1.12702       -0.27641
O          1.63599       -0.85516        1.03480
O          2.34232        0.08696       -1.13600
O          1.65714       -2.29443       -0.96488
C          3.96897       -1.58118        0.04115
H          4.45441       -0.74988        0.55300
H          3.97194       -2.47346        0.66742
H          4.45231       -1.77933       -0.91558
N         -0.79731       -2.36064        0.27535
H         -0.59090       -1.56496        0.89237
H         -1.60412       -2.03849       -0.30230
C         -1.10965       -3.57567        1.04887
H         -1.33275       -4.38986        0.35974
H         -0.24901       -3.83916        1.66361
H         -1.97538       -3.38316        1.68249
H          0.05524       -2.47558       -0.31573
H         -0.27801        2.83512        1.06831
H          0.46121        1.22850        1.24215
H          2.04153        3.00599        2.03617
H          2.67142        2.13665        0.63027
H          1.55475        4.84445        0.60416
H          2.95976        4.30577       -0.03838
H         -0.62098        1.70658       -0.94930
H          0.64165        2.81785       -1.20430
C          0.54058        2.19091        0.73725
C          1.89963        2.83788        0.96099
N          0.36954        1.95765       -0.71939
N          1.99712        4.05360        0.14838
H          1.02491        1.19948       -1.01656
