38
2msa1ma1tma_36.log	Energy: -1003285.1927060
S         -0.59842        1.97518       -0.09217
O          0.20722        1.68775       -1.32164
O          0.20354        2.04249        1.13648
O         -1.76405        1.04848        0.00109
C         -1.29721        3.59477       -0.36012
H         -0.47529        4.30570       -0.44666
H         -1.88488        3.57217       -1.27788
H         -1.92492        3.83715        0.49771
S          2.49506       -0.63023       -0.07744
O          3.59021       -1.52593       -0.39068
O          1.14570       -1.19308        0.05227
O          2.46966        0.49466       -1.18195
H          1.57447        0.98037       -1.20737
C          2.85649        0.25745        1.41813
H          2.89608       -0.47790        2.22291
H          3.82382        0.74383        1.29226
H          2.05354        0.98129        1.57806
N         -2.27096       -0.88707        2.19959
H         -2.29882        0.02860        1.75352
C         -0.94976       -1.07788        2.80749
H         -0.70490       -0.34178        3.58490
H         -0.88786       -2.07869        3.24742
H         -0.18577       -1.00556        2.02886
H         -2.99056       -0.89744        2.91496
N         -1.71547       -1.53990       -0.89297
C         -1.38032       -2.84626       -0.27008
H         -0.30025       -2.90027       -0.14503
H         -1.87472       -2.88010        0.70112
H         -1.73779       -3.64302       -0.92655
C         -3.18331       -1.36751       -1.02932
H         -3.62339       -1.46105       -0.03650
H         -3.37528       -0.37125       -1.42525
H         -3.56753       -2.13653       -1.70297
C         -1.01566       -1.33139       -2.18783
H         -1.17979       -0.30102       -2.50334
H          0.04886       -1.49056       -2.02748
H         -1.41251       -2.03879       -2.91924
H         -1.41342       -0.76563       -0.27018
