40
2msa1dma1eda_332.log	Energy: -1038017.6780414
S          0.00892       -1.78468        0.48107
O          1.32811       -2.30602        0.94146
O          0.03831       -1.38385       -0.94475
O         -0.49434       -0.68354        1.36094
H          0.03675        0.78936        1.36478
C         -1.16833       -3.10166        0.66738
H         -0.81821       -3.94799        0.07567
H         -1.21827       -3.36067        1.72498
H         -2.12779       -2.73040        0.29472
S          0.74851        2.38724        0.04675
O          0.77040        3.82453        0.19865
O          0.24336        1.77958        1.41116
O          2.01815        1.73212       -0.32830
H          2.64562        0.16523       -0.33510
C         -0.47557        1.89117       -1.13925
H         -1.46522        2.10731       -0.72635
H         -0.27196        2.45349       -2.05166
H         -0.36230        0.81616       -1.30167
N          3.14060       -0.75135       -0.32616
C          4.44026       -0.58154        0.35304
C          3.22559       -1.26139       -1.71129
H          2.51884       -1.39627        0.22656
H          5.06145        0.10616       -0.22255
H          4.26369       -0.16914        1.34623
H          4.93341       -1.55106        0.43717
H          3.77872       -0.54891       -2.32528
H          3.73531       -2.22621       -1.70571
H          2.20743       -1.38128       -2.08281
H         -4.60216       -0.41390        0.97743
H         -5.07853        1.17218        0.34348
H         -5.17024       -0.57270       -1.37654
H         -4.03017        0.72096       -1.79367
H         -3.26508       -1.65931       -2.10373
H         -2.24612       -0.76476       -1.21477
H         -3.15706        1.60150        1.54025
H         -2.34613        0.31557        0.96269
C         -4.29425        0.40796        0.31200
C         -4.20527       -0.12642       -1.11191
N         -3.03220        1.02642        0.71448
N         -3.18089       -1.16616       -1.22150
