40
2msa1dma1eda_380.log	Energy: -1038012.6427737
S          3.27640       -0.07784        0.42387
O          4.71424        0.00725        0.21629
O          2.50086       -0.31494       -0.85790
O          2.67037        1.09334        1.13158
H          1.43685        1.66716        0.29136
C          2.93808       -1.49570        1.45245
H          3.34219       -2.37827        0.95515
H          3.44184       -1.33440        2.40596
H          1.85892       -1.58073        1.59168
S         -0.59859       -1.35454       -0.56158
O         -0.92667       -0.05460       -1.18294
O         -0.45034       -1.33011        0.89031
O          0.67715       -1.95163       -1.24100
H          1.49491       -1.31048       -1.08319
C         -1.83163       -2.52418       -1.03781
H         -2.76253       -2.17690       -0.56810
H         -1.89730       -2.53002       -2.12548
H         -1.53390       -3.49965       -0.65286
N          0.68300        2.06849       -0.34003
C          1.35276        2.69073       -1.50138
C         -0.18331        2.97366        0.43666
H          0.11954        1.26232       -0.67016
H          1.98547        3.50801       -1.15216
H          1.96935        1.92651       -1.97508
H          0.60221        3.06429       -2.20030
H          0.41794        3.79090        0.83781
H         -0.97002        3.36999       -0.20813
H         -0.62879        2.40956        1.25656
H         -4.09872        0.49531        2.23450
H         -2.55327       -0.01876        1.53323
H         -3.27647        2.07219        0.50679
H         -3.29055        0.76879       -0.69114
H         -5.66403        1.89201        0.62209
H         -5.34657        1.79086       -0.98094
H         -4.20812       -1.82802        1.65345
H         -5.12029       -1.01827        0.55223
C         -3.61880        0.11104        1.31764
C         -3.78770        1.14237        0.20881
N         -4.17009       -1.17149        0.88118
N         -5.20791        1.33065       -0.08954
