38
2msa2dma_183.log	Energy: -1003275.8208960
S          0.48716       -1.86814       -0.14659
O          1.76209       -2.58328       -0.20335
O          0.05909       -1.15781       -1.34948
O          0.60904       -0.86191        1.05319
H         -0.04953       -0.02318        0.99128
C         -0.79566       -2.98242        0.35814
H         -0.89993       -3.72761       -0.43188
H         -0.48422       -3.45128        1.29166
H         -1.71733       -2.39534        0.48045
S         -0.30601        2.25099        0.08884
O         -0.69012        3.56169        0.58907
O         -0.83581        1.11418        0.94057
O          1.16013        2.06347       -0.13163
H          2.25642        0.86601        0.20412
C         -1.06539        2.01050       -1.50657
H         -2.14461        2.10980       -1.38186
H         -0.68949        2.78280       -2.17845
H         -0.80056        1.01175       -1.85722
N          3.27475        0.59503        0.17698
C          3.58032        0.04244       -1.16785
C          3.65574       -0.29038        1.30490
H          3.73646        1.49945        0.27907
H          3.08292       -0.92312       -1.26087
H          3.19497        0.73626       -1.91443
H          4.66002       -0.07672       -1.27195
H          3.17004       -1.25438        1.15974
H          4.74127       -0.40379        1.31618
H          3.30781        0.16159        2.23313
N         -3.16755       -0.72906        0.27775
C         -4.38689       -0.53326        1.04360
C         -3.40233       -0.79053       -1.15548
H         -2.50960        0.01869        0.48814
H         -5.03512       -1.41093        0.93809
H         -4.14228       -0.41887        2.10270
H         -4.96610        0.35158        0.72620
H         -4.01993       -1.66581       -1.38951
H         -3.92326        0.09793       -1.55555
H         -2.44682       -0.90102       -1.67551
