32
2msa2ma_83.log	Energy: -953959.1006047
S         -1.76761        0.17702       -0.69700
O         -0.90366        1.28109       -1.13148
O         -2.96149       -0.08452       -1.49898
O         -2.20398        0.45544        0.78545
H         -3.26055        0.30399        0.89557
C         -0.78611       -1.29014       -0.57074
H          0.00035       -1.12014        0.17067
H         -1.44643       -2.10844       -0.28209
H         -0.33062       -1.47456       -1.54435
S          2.88874       -0.73267        0.04894
O          2.47251       -1.63814       -1.02845
O          1.83515       -0.46925        1.06462
O          3.46138        0.56929       -0.45096
H          2.34727        1.64217       -0.40672
C          4.24484       -1.52059        0.90437
H          3.87905       -2.46177        1.31582
H          5.04086       -1.70160        0.18179
H          4.58681       -0.85818        1.69967
N         -4.71884        0.03454        0.91920
H         -5.22249        0.50167        1.66709
C         -4.95362       -1.41782        0.94169
H         -6.01500       -1.67757        0.87964
H         -4.43254       -1.85993        0.09047
H         -4.53710       -1.83398        1.86120
H         -5.03645        0.42513        0.03499
N          1.52169        2.32533       -0.28846
H          1.68789        3.15546       -0.85225
C          1.33344        2.64990        1.14446
H          0.44204        3.26514        1.26876
H          1.22395        1.70176        1.67090
H          2.21523        3.17465        1.51241
H          0.66933        1.85815       -0.65024
