35
2msa1a1tma_21.log	Energy: -978628.5865152
S         -1.92857       -1.15269       -0.01034
O         -3.10604       -0.31211        0.22434
O         -1.20804       -1.60229        1.19981
O         -0.97389       -0.47687       -0.97742
C         -2.47059       -2.62712       -0.85884
H         -3.15214       -3.16189       -0.19685
H         -2.98011       -2.32653       -1.77441
H         -1.59600       -3.23810       -1.08471
S          2.33397       -0.70158       -0.11721
O          1.83929        0.60254        0.34878
O          3.70795       -0.79205       -0.56591
O          1.40760       -1.20638       -1.28355
H          0.41943       -0.94127       -1.13301
C          2.04336       -1.88254        1.17932
H          2.63147       -1.56980        2.04325
H          0.97195       -1.88698        1.40005
H          2.37789       -2.85654        0.82164
N         -0.29971        1.06012        2.40283
H         -0.71510        0.14874        2.20072
H         -0.61419        1.33666        3.32721
H          0.70558        0.91698        2.44191
N         -0.31133        2.37296       -0.32033
C         -1.75584        2.64575       -0.10219
H         -2.33500        1.81474       -0.50482
H         -1.92480        2.70197        0.97212
H         -2.00852        3.58782       -0.59379
C          0.54664        3.39857        0.32179
H          0.31107        3.41421        1.38489
H          1.58858        3.11370        0.17956
H          0.34176        4.36709       -0.13906
C          0.01286        2.21617       -1.76117
H          1.05776        1.91918       -1.84762
H         -0.62724        1.43652       -2.16943
H         -0.15773        3.17176       -2.26153
H         -0.09722        1.48075        0.15534
