30
2msa1eda_133.log	Energy: -953190.1171179
S         -2.45599        0.20867        0.03055
O         -1.83365        0.22332       -1.28678
O         -2.27302       -0.92895        0.90841
O         -4.05832        0.36622       -0.21890
H         -4.20621        0.40609       -1.17440
C         -2.09613        1.70067        0.91175
H         -1.02080        1.66772        1.12790
H         -2.34890        2.54548        0.27102
H         -2.69130        1.70303        1.82500
S          1.90945        1.44159       -0.02460
O          2.91068        2.39582        0.44617
O          0.90604        1.02283        0.99256
O          2.50765        0.21231       -0.67348
H          2.35766       -0.98526        0.18172
C          0.99646        2.23114       -1.34281
H          0.56052        3.14760       -0.94164
H          1.69720        2.46923       -2.14336
H          0.21851        1.54866       -1.68805
H          0.57059       -2.89059        1.69617
H          0.25451       -1.18939        1.24398
H         -0.84874       -2.78627       -0.34717
H          0.34637       -1.76354       -1.14043
H          0.65225       -4.60247       -0.52455
H          1.06355       -3.78813       -1.87992
H          2.63743       -1.71462        1.70334
H          2.59599       -2.68762        0.33429
C          0.72777       -2.12032        0.93502
C          0.22354       -2.58230       -0.42550
N          2.18792       -1.87232        0.80490
N          1.02938       -3.72648       -0.86971
