42
2msa2eda_16.log	Energy: -1072771.6649261
S         -3.08895       -0.01830       -0.47867
O         -2.41097       -0.05637        0.84549
O         -2.94420       -1.29689       -1.21848
O         -2.67483        1.17594       -1.26682
C         -4.83382        0.18713       -0.17213
H         -5.17910       -0.66131        0.41875
H         -4.97881        1.12194        0.36945
H         -5.34250        0.21820       -1.13577
S          2.59549       -0.22753       -0.85439
O          2.82880       -0.07281        0.59899
O          2.01504        0.99365       -1.47871
O          1.82380       -1.45651       -1.19079
C          4.19207       -0.44133       -1.62034
H          4.78835        0.44733       -1.41299
H          4.65850       -1.32757       -1.18978
H          4.04094       -0.56571       -2.69250
H         -1.07742       -3.44227        1.50144
H         -0.04896       -4.09727        0.20310
H          1.20960       -3.69473        2.38854
H          1.88468       -2.86414        0.98164
H          0.78995       -1.63552        3.30091
H          1.65658       -0.97337        2.04387
H         -1.41040       -2.17172       -0.57379
H         -0.80166       -1.28137        0.64459
C         -0.22173       -3.23676        0.85333
C          1.03144       -2.89033        1.66561
N         -0.56850       -2.06753        0.01726
N          0.88212       -1.58309        2.29596
H          0.25264       -1.78578       -0.56350
H         -0.95170        2.15407        1.52734
H          0.18031        0.84874        1.17611
H          1.29913        2.61369        2.54471
H          2.05145        2.42947        0.95978
H          0.29066        4.62776        1.77838
H          1.74355        4.69890        1.02870
H         -1.15598        1.77464       -0.77776
H         -0.17918        3.15283       -0.59021
C         -0.02169        1.90762        1.01081
C          1.14613        2.77046        1.46931
N         -0.23305        2.13983       -0.44073
N          0.88646        4.16469        1.10046
H          0.54991        1.69239       -0.96978
