32
2msa1a1dma_141.log	Energy: -953955.3920049
S          0.83624        1.53172        0.07729
O         -0.07115        2.69370        0.00571
O          0.90521        0.71838       -1.13396
O          0.46612        0.65221        1.31686
H         -0.51265        0.27433        1.22525
C          2.45249        2.07742        0.54177
H          3.08854        1.18430        0.56850
H          2.78279        2.77109       -0.23238
H          2.38217        2.57460        1.50862
S         -2.35623       -1.17031        0.05414
O         -3.32261       -2.09704        0.62023
O         -1.86383       -0.13579        1.04860
O         -2.81782       -0.44493       -1.17458
H         -2.76628        1.07569       -0.94280
C         -0.91238       -2.09468       -0.43846
H         -0.51845       -2.59929        0.44462
H         -1.23218       -2.82495       -1.18214
H         -0.18012       -1.40428       -0.86084
N         -2.72252        2.10450       -0.61188
H         -3.19683        2.14218        0.28857
H         -3.17058        2.73141       -1.27415
H         -1.72770        2.37439       -0.46037
N          3.36349       -0.99248       -0.20147
C          2.79637       -1.92754        0.75906
C          4.54490       -1.51614       -0.86799
H          2.65656       -0.74784       -0.88925
H          3.51716       -2.10175        1.56534
H          1.89506       -1.49497        1.20053
H          2.54286       -2.90757        0.31815
H          5.34730       -1.65004       -0.13424
H          4.37706       -2.48860       -1.36260
H          4.89267       -0.80196       -1.61935
