41
2msa1dma1tma_101.log	Energy: -1027940.1163431
S         -0.66599       -1.72353        0.78601
O         -2.05202       -1.93389        1.23678
O          0.20946       -1.08771        1.81981
O         -0.60215       -0.94571       -0.49604
H         -1.84980        0.05127       -0.62985
C          0.06876       -3.30407        0.44301
H          0.15165       -3.84214        1.38766
H         -0.58739       -3.83535       -0.24721
H          1.04693       -3.11571       -0.01347
S          1.05929        2.01570        0.27164
O         -0.35318        2.41108        0.26581
O          1.59389        1.45237       -0.95959
O          1.36750        1.10993        1.51059
H          0.84328        0.21508        1.56625
C          2.03500        3.42991        0.73079
H          1.92679        4.16302       -0.06908
H          1.65540        3.82336        1.67318
H          3.07342        3.11340        0.82537
N          2.50871       -1.60674       -1.00639
C          3.15253       -1.51178       -2.30553
C          3.41394       -1.27806        0.08291
H          1.72750       -0.95473       -0.99075
H          3.93455       -2.27591       -2.38668
H          2.41725       -1.69681       -3.09376
H          3.61736       -0.52719       -2.48883
H          4.22122       -2.01888        0.12233
H          3.87113       -0.27839       -0.01903
H          2.87412       -1.31235        1.03299
N         -2.79149        0.52557       -0.75990
C         -3.19598        1.07742        0.55945
H         -3.22296        0.25304        1.27324
H         -2.44790        1.80780        0.86490
H         -4.18045        1.54173        0.46083
C         -2.62596        1.58234       -1.78500
H         -1.88900        2.29727       -1.42041
H         -2.26474        1.12164       -2.70520
H         -3.59016        2.06613       -1.95975
C         -3.71218       -0.55029       -1.20028
H         -3.34438       -0.96171       -2.14091
H         -3.70858       -1.32832       -0.43568
H         -4.71334       -0.13401       -1.33533
