42
2msa2eda_583.log	Energy: -1072740.5746682
S          2.32354       -1.13830        0.01023
O          2.24595       -0.35480        1.24637
O          2.25219       -0.41108       -1.24861
O          1.27046       -2.30551        0.04078
H          0.30831       -1.93022       -0.06134
C          3.81438       -2.10437        0.05478
H          4.64574       -1.39897        0.04345
H          3.81905       -2.69437        0.97077
H          3.83616       -2.74309       -0.82769
S         -1.98463       -1.05302       -1.15629
O         -2.78799       -2.23705       -1.43059
O         -0.97556       -1.24473       -0.04529
O         -2.77275        0.17708       -0.80817
H         -2.42847        0.62542        0.67716
C         -1.04187       -0.65441       -2.61302
H         -0.34912       -1.47607       -2.79878
H         -1.74971       -0.55724       -3.43721
H         -0.51147        0.28660       -2.44920
H         -2.72239        0.38892        3.62584
H         -2.86761       -0.89036        2.39289
H         -0.73095       -0.95593        3.90046
H         -0.49273       -1.08191        2.15232
H          0.25119        1.14935        3.82065
H          0.88656        0.60365        2.39625
H         -3.06350        1.68865        1.80595
H         -1.39371        1.49487        1.75750
C         -2.27846       -0.03261        2.72008
C         -0.80456       -0.41194        2.95262
N         -2.31444        1.01611        1.66495
N          0.02268        0.79080        2.90172
H         -0.29825        2.79275        0.50820
H          0.10824        1.19414       -0.15598
H          2.14157        2.41548        0.25461
H          1.91828        2.22733       -1.48703
H          1.47108        4.69287        0.03487
H          2.41425        4.46881       -1.27958
H         -1.65929        2.20135       -1.46582
H         -0.64816        3.46590       -1.85135
C          0.09631        2.26591       -0.38513
C          1.52786        2.73330       -0.60065
N         -0.69292        2.48753       -1.58563
N          1.54922        4.18080       -0.83791
