32
2msa1a1dma_118.log	Energy: -953955.4526412
S         -3.10050        0.08014       -0.34454
O         -2.35018       -1.18841       -0.58657
O         -2.51907        1.23851       -1.07289
O         -3.27315        0.37195        1.10339
H         -1.99488        1.65523        1.56185
C         -4.71523       -0.20813       -1.03143
H         -4.59345       -0.42061       -2.09343
H         -5.15800       -1.05841       -0.51304
H         -5.30953        0.69302       -0.88117
S          1.00426       -0.81595        0.38417
O          0.84925        0.37660        1.24685
O          1.25186       -0.55158       -1.02499
O         -0.21216       -1.77453        0.58881
H         -1.07818       -1.49309        0.08602
C          2.30774       -1.79581        1.07156
H          3.22694       -1.22259        0.90515
H          2.10063       -1.95421        2.12933
H          2.33638       -2.74002        0.52778
N         -1.20930        2.16500        1.11400
H         -0.35463        1.56778        1.18932
H         -1.06577        3.09197        1.50130
H         -1.50526        2.18010        0.11617
N          4.22805        0.35506       -0.52602
C          5.50742        0.21275       -1.20088
C          4.03751        1.67810        0.04770
H          3.46825        0.15896       -1.17189
H          6.31729        0.29191       -0.46713
H          5.57298       -0.77387       -1.66734
H          5.68258        0.97728       -1.97811
H          4.78083        1.84357        0.83584
H          4.14134        2.49387       -0.68926
H          3.04413        1.73973        0.50022
