35
2msa1ma1dma_298.log	Energy: -978613.6646161
S          1.78632       -1.61219       -0.06664
O          2.70539       -1.09592        0.94598
O          1.71349       -0.85631       -1.31775
O          0.35247       -1.81330        0.53044
H         -0.15030       -0.90040        0.60863
C          2.19986       -3.30275       -0.41815
H          3.20388       -3.30178       -0.84334
H          2.17530       -3.86354        0.51577
H          1.47567       -3.69214       -1.13296
S         -1.46366        1.14017       -0.37066
O         -2.79678        1.60120       -0.00196
O         -0.76724        0.39858        0.75127
O         -0.55009        2.22741       -0.85840
H          0.75762        2.36833       -0.09604
C         -1.61160       -0.02452       -1.70724
H         -2.21164       -0.85885       -1.33061
H         -2.10876        0.48606       -2.53268
H         -0.60799       -0.34590       -1.99194
N         -3.29077       -1.68077        0.65476
H         -3.24969       -2.58840        1.10480
C         -4.66507       -1.18772        0.58092
H         -5.17608       -1.11158        1.55235
H         -4.65183       -0.19283        0.12952
H         -5.25487       -1.84736       -0.06325
H         -2.71754       -1.04528        1.20243
N          1.69383        2.62521        0.37788
C          2.80356        2.24926       -0.53159
C          1.77973        2.00980        1.72704
H          1.65842        3.63937        0.47390
H          2.73740        1.17797       -0.72279
H          2.68365        2.79199       -1.46942
H          3.75969        2.49460       -0.06590
H          1.94339        0.93894        1.60941
H          2.61538        2.45436        2.27128
H          0.83755        2.17991        2.24673
