35
2msa1ma1dma_163.log	Energy: -978623.4595056
S          2.24270       -0.48479       -0.51980
O          2.07123       -1.79249        0.12230
O          2.73360        0.58806        0.39579
O          1.01064       -0.00004       -1.23057
C          3.48347       -0.66994       -1.78422
H          4.40681       -0.99034       -1.30131
H          3.13474       -1.42527       -2.48863
H          3.61777        0.29084       -2.28071
S         -2.40914        0.10368       -0.82848
O         -3.51908        0.12767       -1.75549
O         -1.73435        1.37785       -0.52640
O         -1.34257       -0.94139       -1.32167
H         -0.37994       -0.60329       -1.25880
C         -2.95167       -0.58938        0.71425
H         -3.69557        0.09517        1.12437
H         -3.40216       -1.56044        0.50764
H         -2.08366       -0.69382        1.37344
N         -0.12066       -1.73524        2.18435
H          0.77438       -1.63903        1.70393
C         -0.75269       -2.96307        1.68981
H         -0.15518       -3.86918        1.85456
H         -1.72584       -3.10208        2.17270
H         -0.91963       -2.86262        0.61437
H          0.08815       -1.83394        3.17342
N          0.53691        2.11214        0.82060
C          0.01307        1.77829        2.16252
C          0.71928        3.55443        0.57027
H          1.44134        1.59779        0.67046
H         -0.94790        2.27600        2.30302
H         -0.11900        0.69372        2.22177
H          0.72603        2.11233        2.91809
H         -0.24433        4.05876        0.65517
H          1.42223        3.96060        1.29929
H          1.11550        3.68595       -0.43648
H         -0.12919        1.72906        0.12422
