35
2msa1ma1dma_316.log	Energy: -978610.3030291
S         -1.87844       -0.02615        0.15027
O         -1.27902       -1.09254       -0.66263
O         -2.83773       -0.48528        1.18028
O         -2.54119        1.04012       -0.71388
H         -3.94709        0.86354       -0.69815
C         -0.55581        0.83012        0.97698
H         -0.03581        0.11896        1.62047
H          0.13452        1.20845        0.22238
H         -0.98588        1.64387        1.56099
S          2.81766       -0.88188        0.22790
O          2.32285       -0.81387        1.59360
O          4.23147       -1.20677        0.01734
O          2.51693        0.48793       -0.51004
H          3.41944        0.94687       -0.78521
C          1.80756       -2.01352       -0.69091
H          1.92122       -2.98912       -0.21617
H          0.76590       -1.68089       -0.64685
H          2.17133       -2.03904       -1.71793
N          4.84741        1.48011       -1.04501
H          5.33165        0.60892       -1.25074
C          5.37103        2.06003        0.20048
H          6.43538        2.31188        0.14139
H          4.80452        2.96149        0.44343
H          5.22526        1.33483        1.00363
H          4.97676        2.10991       -1.83031
N         -5.05003        0.66540       -0.63526
C         -5.51503        1.10287        0.69995
C         -5.25998       -0.77904       -0.89041
H         -5.50261        1.21505       -1.36311
H         -4.91728        0.56614        1.43836
H         -5.33699        2.17403        0.80046
H         -6.57852        0.88475        0.82117
H         -4.71307       -1.32931       -0.12312
H         -6.32580       -1.01545       -0.85509
H         -4.84533       -1.02442       -1.86852
