38
2msa2dma_98.log	Energy: -1003284.7069572
S          2.33138       -1.07529        0.11820
O          3.11984       -0.20062        0.97590
O          2.41758       -0.91356       -1.32615
O          0.84435       -0.92689        0.60335
C          2.71542       -2.76844        0.51584
H          3.76082       -2.93461        0.25353
H          2.55599       -2.91599        1.58362
H          2.06392       -3.41409       -0.07368
S         -2.34441       -0.88414       -0.15991
O         -2.77529        0.30662       -0.90911
O         -2.13036       -0.61930        1.28839
O         -1.13549       -1.55303       -0.76002
H          0.08483       -1.24604       -0.04458
C         -3.64175       -2.09838       -0.28314
H         -4.54438       -1.66932        0.15231
H         -3.79259       -2.32179       -1.33932
H         -3.33278       -2.98966        0.26258
N         -0.50970        1.64275        1.25138
C         -1.65732        2.56496        1.37161
C          0.57612        1.87795        2.22342
H         -0.88646        0.67894        1.34819
H         -1.31433        3.58917        1.20882
H         -2.39349        2.27999        0.61825
H         -2.09664        2.47333        2.36617
H          0.94886        2.89712        2.10056
H          0.19026        1.74788        3.23619
H          1.38032        1.16670        2.03228
H         -0.12370        1.75385        0.25791
N          0.40292        2.30492       -1.29639
C          0.06168        1.33833       -2.35184
C          1.83058        2.63854       -1.28305
H         -0.12586        3.15588       -1.47100
H          0.61429        0.41302       -2.17978
H         -1.00553        1.11512       -2.30370
H          0.32301        1.71842       -3.35016
H          2.40585        1.74012       -1.04961
H          2.18047        3.02700       -2.25057
H          2.02974        3.38843       -0.51159
