38
2msa1ma1tma_112.log	Energy: -1003276.7279421
S          2.42087       -1.39922       -0.22584
O          2.86359       -0.09892       -0.73585
O          1.48909       -2.16926       -1.03507
O          1.88345       -1.23499        1.24174
H          0.91204       -0.84995        1.28428
C          3.86414       -2.38250        0.10873
H          4.35355       -2.55823       -0.84978
H          4.51723       -1.82539        0.77958
H          3.54393       -3.32188        0.55800
S         -1.37691       -0.07147        0.34122
O         -2.57609        0.65071        0.77913
O         -0.38764       -0.23599        1.46943
O         -0.69125        0.55239       -0.83356
H          0.40137        1.61991       -0.41535
C         -1.83523       -1.70743       -0.17688
H         -2.19735       -2.24078        0.70304
H         -2.63221       -1.60631       -0.91886
H         -0.94470       -2.18331       -0.59124
N         -4.80756       -0.50051       -1.00594
H         -4.25283        0.25029       -0.60209
C         -5.52119       -1.20934        0.05129
H         -6.24480       -0.59787        0.61125
H         -6.05274       -2.06683       -0.37310
H         -4.79324       -1.59391        0.77155
H         -5.45411       -0.09481       -1.67264
N          0.90512        2.51530       -0.13041
C          1.65688        2.25560        1.12320
H          0.96456        1.84482        1.85888
H          2.43479        1.52378        0.90922
H          2.09207        3.19390        1.47625
C          1.79863        2.89789       -1.24835
H          2.52384        2.09732       -1.39226
H          1.19779        3.01410       -2.15094
H          2.29786        3.83935       -1.00575
C         -0.18684        3.49607        0.08327
H         -0.73446        3.61830       -0.85108
H         -0.86690        3.10307        0.84054
H          0.24037        4.44874        0.40480
