29
2msa1a1ma_127.log	Energy: -929291.6870568
S         -1.83437       -0.49399        0.02583
O         -1.25680        0.75363       -0.46604
O         -2.50707       -1.35047       -0.95239
O         -2.84369       -0.18985        1.20305
H         -3.81243       -0.13374        0.80249
C         -0.58449       -1.41146        0.88287
H          0.19014       -1.65552        0.15371
H         -0.16118       -0.77786        1.66310
H         -1.04229       -2.30995        1.29515
S          2.56359        0.45822        0.29490
O          2.10258        0.42574        1.67167
O          2.38866       -0.74593       -0.52485
O          4.09711        0.85809        0.26324
H          4.64464        0.13546       -0.22531
C          1.80381        1.83438       -0.52710
H          0.72893        1.63635       -0.54587
H          2.02869        2.73425        0.04568
H          2.20902        1.89965       -1.53666
N          5.30895       -1.10614       -1.00673
H          4.45826       -1.61393       -1.24356
H          5.88929       -1.70530       -0.42893
H          5.81463       -0.90257       -1.86234
N         -5.11469       -0.06185       -0.03660
H         -4.96303       -0.83356       -0.68319
C         -5.13590        1.21665       -0.76368
H         -5.92711        1.26841       -1.51900
H         -5.27118        2.03023       -0.04809
H         -4.16952        1.35522       -1.25355
H         -5.99113       -0.22599        0.44804
