34
2msa1a1eda_141.log	Energy: -988703.3841787
S          2.19179       -1.08728       -0.22272
O          2.97215        0.00768        0.41222
O          1.83882       -0.85593       -1.62494
O          0.98659       -1.41994        0.62887
C          3.23049       -2.53462       -0.14313
H          4.13971       -2.32414       -0.70672
H          3.46178       -2.73609        0.90275
H          2.68582       -3.36739       -0.58844
S         -2.35894       -0.89215       -0.05221
O         -2.04296        0.29556       -0.84043
O         -2.60941       -0.68340        1.37352
O         -1.28599       -2.01499       -0.27132
H         -0.33755       -1.75184        0.05161
C         -3.76306       -1.70947       -0.77064
H         -4.60766       -1.02695       -0.67231
H         -3.54495       -1.90810       -1.81946
H         -3.94462       -2.63323       -0.22232
N         -0.11036        0.68187        2.47914
H          0.02080        0.86891        3.46780
H          0.39674       -0.17401        2.24527
H         -1.09515        0.46270        2.32774
H          1.22733        2.38387       -1.55613
H          0.09735        1.15779       -0.95829
H         -1.14313        3.19498       -1.64394
H         -1.31562        2.88279        0.07860
H          0.38600        4.94952       -1.11775
H         -0.72810        5.10787        0.06484
H          2.06559        1.50341        0.47219
H          1.48256        3.09163        0.76752
C          0.50565        2.14993       -0.76883
C         -0.60080        3.18876       -0.69076
N          1.23433        2.13006        0.52440
N         -0.02557        4.48468       -0.31482
H          0.63147        1.71350        1.30185
