38
2msa2dma_104.log	Energy: -1003282.9836530
S         -0.90114       -1.93981       -0.52808
O         -0.29593       -3.07130       -1.21524
O         -0.98730       -0.69041       -1.47347
O         -0.26282       -1.54848        0.74602
H          1.39979       -1.23737        0.85846
C         -2.61779       -2.22049       -0.21774
H         -3.10114       -2.42591       -1.17309
H         -2.68282       -3.08473        0.44427
H         -2.99657       -1.30241        0.25385
S          1.16558        1.89531       -0.29695
O          2.30962        1.64935        0.62754
O         -0.10771        2.19797        0.36061
O          1.06146        0.75710       -1.28234
H         -0.16910       -0.06781       -1.38613
C          1.62395        3.31735       -1.26813
H          1.73538        4.16154       -0.58730
H          2.56389        3.10223       -1.77598
H          0.82691        3.50526       -1.98771
N          2.42432       -1.04255        0.88733
C          3.03313       -1.62860       -0.32721
C          2.98067       -1.53941        2.15964
H          2.49206        0.00605        0.83913
H          2.82283       -2.69867       -0.35652
H          2.58653       -1.13665       -1.19127
H          4.10973       -1.45136       -0.30963
H          2.82619       -2.61746        2.22671
H          4.04742       -1.31393        2.20174
H          2.46844       -1.04280        2.98381
N         -2.85784        0.84465        0.79095
C         -3.35251        1.35486        2.05918
C         -3.45061        1.52293       -0.35144
H         -1.85157        0.99401        0.75308
H         -4.42439        1.14349        2.15133
H         -2.83807        0.85227        2.88311
H         -3.21133        2.44317        2.17671
H         -4.52807        1.32068       -0.38368
H         -3.31022        2.61695       -0.32817
H         -3.00197        1.13712       -1.27084
