34
2msa1a1eda_131.log	Energy: -988705.3275692
S         -2.38086       -0.67808       -0.24308
O         -3.43228        0.18319       -0.76909
O         -2.02276       -0.53182        1.16437
O         -1.11554       -0.45521       -1.15023
C         -2.79304       -2.38167       -0.54681
H         -3.67121       -2.61979        0.05411
H         -3.00403       -2.49858       -1.60945
H         -1.93924       -2.99042       -0.24534
S          1.99261       -1.20629        0.23017
O          1.58537       -0.24187        1.28476
O          2.93106       -0.64583       -0.75436
O          0.79495       -1.85645       -0.41280
H         -0.29433       -1.03365       -0.84066
C          2.82194       -2.54475        1.06299
H          2.13605       -2.96888        1.79608
H          3.10399       -3.28589        0.31536
H          3.70591       -2.13394        1.55101
N         -2.62260        2.42873        1.25513
H         -3.19825        2.12128        0.47208
H         -2.99429        3.30546        1.60415
H         -2.74116        1.71791        1.97287
H          0.47997        3.85532       -0.08160
H          1.22097        3.24735        1.41769
H          2.87005        3.47530       -0.52971
H          2.78698        1.85355        0.16953
H          2.01854        2.58951       -2.47722
H          2.27815        1.09351       -1.80711
H         -0.92362        2.12197        0.74019
H         -0.05926        1.55811       -0.60895
C          0.98100        3.00032        0.38125
C          2.22951        2.59384       -0.41072
N          0.02832        1.86894        0.36955
N          1.82975        1.99742       -1.67998
H          0.42560        1.05338        0.87917
