34
2msa1a1eda_269.log	Energy: -988694.0295624
S         -2.21387       -1.07401       -0.24714
O         -1.43393       -1.42853       -1.45017
O         -3.09011        0.11028       -0.42168
O         -1.33903       -0.94414        0.96319
C         -3.29770       -2.45271        0.09566
H         -3.96989       -2.57007       -0.75478
H         -2.68797       -3.34663        0.22852
H         -3.85970       -2.23177        1.00328
S          2.49692       -0.80537        0.16534
O          2.84093        0.00800       -0.98705
O          1.94384       -0.16516        1.35124
O          3.85607       -1.55963        0.64122
H          3.95052       -1.42636        1.59520
C          1.49706       -2.16980       -0.35016
H          0.56703       -1.77235       -0.77552
H          2.06259       -2.72799       -1.09661
H          1.27417       -2.77482        0.52820
N         -2.91427        2.58646        1.18852
H         -3.30951        2.52931        2.12155
H         -3.20134        1.74451        0.67602
H         -3.33480        3.38901        0.73188
H          0.33063        0.86042       -1.12790
H         -1.18271        1.75622       -1.17504
H          0.75096        3.05965       -2.13676
H          0.03722        3.88463       -0.74368
H          2.47968        2.25366       -0.62371
H          2.33941        3.86738       -0.32767
H         -0.57307        0.59653        0.96331
H          0.57490        1.83821        1.16277
C         -0.18261        1.74156       -0.73899
C          0.61255        3.00249       -1.04822
N         -0.32010        1.58637        0.73086
N          1.85458        2.97977       -0.28113
H         -1.11642        2.17659        1.06848
