28
2msa1dma_94.log	Energy: -918444.1293098
S         -1.35740       -1.58250       -0.04144
O         -1.38476       -2.98788        0.31654
O         -0.43969       -1.14646       -1.09281
O         -1.05309       -0.70505        1.26874
H         -0.12399       -0.37697        1.23626
C         -2.99523       -1.01676       -0.40368
H         -3.32272       -1.56629       -1.28747
H         -3.62839       -1.25900        0.45048
H         -2.95465        0.06529       -0.58910
S          2.44434        0.33596        0.02414
O          2.21241        1.40252       -0.91902
O          1.53233        0.16378        1.16105
O          3.91180        0.52295        0.68800
H          3.79636        0.76658        1.61832
C          2.68100       -1.20178       -0.82059
H          3.47128       -1.05964       -1.55774
H          2.94914       -1.95874       -0.08444
H          1.72282       -1.43304       -1.29168
N         -2.55056        2.23111       -0.47425
C         -1.13888        2.38144       -0.80606
C         -2.81838        2.44159        0.94168
H         -3.10190        2.87820       -1.02709
H         -0.56016        1.61864       -0.28001
H         -0.98687        2.22255       -1.87581
H         -0.72512        3.36521       -0.52941
H         -2.32921        1.64845        1.51716
H         -2.45245        3.41102        1.32072
H         -3.89435        2.37877        1.12822
