40
2msa1dma1eda_540.log	Energy: -1038004.8249846
S          0.85177       -2.27546       -0.17614
O          0.65443       -1.78234       -1.52903
O          2.04200       -1.86164        0.56189
O          0.94464       -3.89533       -0.27414
H          0.71820       -4.15072       -1.17981
C         -0.57554       -2.04303        0.83559
H         -0.55286       -0.98457        1.10672
H         -1.48172       -2.24236        0.25140
H         -0.47293       -2.69507        1.70330
S         -0.04806        1.97985       -0.41626
O         -0.96816        3.04757       -0.00628
O          0.10713        0.88704        0.58816
O          1.31590        2.47026       -0.82209
H          2.34616        1.51663       -0.11686
C         -0.74122        1.23587       -1.88272
H         -1.75735        0.91648       -1.64217
H         -0.75785        1.99824       -2.66238
H         -0.12219        0.38607       -2.17042
N          2.97186        0.86861        0.46202
C          3.06655        1.43836        1.82151
C          4.26627        0.66320       -0.21217
H          2.46768       -0.02839        0.51413
H          3.53883        2.41992        1.76046
H          2.05249        1.54005        2.20799
H          3.65573        0.77557        2.45815
H          4.76236        1.62726       -0.33406
H          4.88979       -0.00612        0.38318
H          4.08362        0.21946       -1.19079
H         -5.18233       -0.64785        0.84134
H         -3.89515       -1.46162        1.74136
H         -3.76157        0.94958        2.07187
H         -2.32865        0.39488        1.20261
H         -4.57055        1.82183        0.00125
H         -2.96988        2.20110       -0.00024
H         -4.19353       -2.17325       -0.65285
H         -3.54639       -0.72567       -1.05878
C         -4.09168       -0.80838        0.88211
C         -3.40962        0.53780        1.11346
N         -3.57074       -1.43926       -0.33272
N         -3.63503        1.42934       -0.02242
