37
2msa1ma1eda_248.log	Energy: -1013363.5435540
S         -1.46470        1.59761       -0.56690
O         -2.57811        2.53546       -0.48708
O         -1.70137        0.37144       -1.36839
O         -0.96289        1.17771        0.81586
H         -0.98428       -0.50953        0.73314
C         -0.07496        2.43229       -1.31254
H         -0.34782        2.66727       -2.34195
H          0.10493        3.35419       -0.75671
H          0.79733        1.77292       -1.28046
S          2.45315       -0.98684       -0.49160
O          3.67981       -1.76609       -0.60926
O          2.58199        0.47878       -0.66489
O          1.70646       -1.26117        0.80895
H          1.72493        0.25077        1.60343
C          1.34172       -1.53556       -1.78414
H          1.85461       -1.38529       -2.73469
H          1.13679       -2.59835       -1.64286
H          0.42679       -0.93694       -1.76032
N          1.43267        1.17732        2.01049
H          0.52150        1.37591        1.52489
C          2.44165        2.24063        1.79336
H          2.04430        3.19131        2.14995
H          3.35452        1.98657        2.33203
H          2.65623        2.27394        0.72697
H          1.23526        1.04527        2.99989
H         -2.01339       -3.20438        1.48141
H         -1.94498       -1.77351        2.54585
H         -4.22596       -2.14841        1.43708
H         -3.52355       -0.55980        1.12265
H         -4.28996       -2.35175       -0.80995
H         -3.25673       -1.08422       -1.05786
H         -0.02632       -1.85037        0.88640
H         -1.22185       -1.78012       -0.29568
C         -2.08279       -2.11487        1.51750
C         -3.41045       -1.63273        0.92260
N         -0.99759       -1.55869        0.68171
N         -3.42587       -1.92369       -0.50783
