35
2msa1ma1dma_217.log	Energy: -978617.9781601
S         -2.08056       -0.79023       -0.22008
O         -1.81250        0.41748       -1.02340
O         -1.98193       -0.62652        1.22652
O         -1.20221       -1.97210       -0.71612
H         -0.16070       -1.71836       -0.71560
C         -3.69793       -1.38394       -0.63939
H         -4.41002       -0.62525       -0.31378
H         -3.74545       -1.52859       -1.71808
H         -3.86145       -2.32120       -0.10809
S          2.14061       -1.01804        0.30367
O          3.37047       -1.77772        0.15479
O          1.13681       -1.28437       -0.80744
O          2.31451        0.46200        0.41702
H          1.35022        1.23759       -0.62061
C          1.33296       -1.53877        1.80671
H          1.18040       -2.61727        1.75151
H          1.99809       -1.29079        2.63441
H          0.37822       -1.01871        1.90503
N         -1.53622        2.38041        2.07814
H         -1.93970        1.46207        1.92151
C         -0.12751        2.24580        2.43488
H          0.49253        1.67732        1.72368
H          0.31951        3.23772        2.56098
H         -0.05192        1.74063        3.40202
H         -1.65624        2.90506        1.21864
N          0.68264        1.67169       -1.31942
C          1.11605        1.28704       -2.68150
C          0.59944        3.12801       -1.09629
H         -0.23714        1.23088       -1.13420
H          2.09884        1.71966       -2.87395
H          1.17864        0.19963       -2.71565
H          0.39183        1.65540       -3.40993
H          1.57719        3.57423       -1.28278
H         -0.14189        3.55984       -1.77067
H          0.31405        3.30873       -0.06028
