37
2msa1ma1eda_119.log	Energy: -1013362.4483617
S         -0.78044        1.81915        0.47936
O         -2.04521        1.15188        0.08918
O         -0.01008        2.38118       -0.63833
O          0.04939        0.88673        1.33152
H          1.51483        0.56481        1.02293
C         -1.22505        3.16761        1.55770
H         -1.84894        3.85615        0.98741
H         -1.77331        2.76195        2.40788
H         -0.30810        3.65839        1.88425
S          2.72343       -0.31828       -0.56262
O          4.00170       -0.99536       -0.54816
O          2.48175        0.27593        0.87657
O          1.53772       -1.09036       -0.96763
H         -0.17199       -1.19945       -0.54248
C          2.80619        1.11988       -1.60155
H          3.65322        1.72048       -1.26979
H          2.95808        0.76850       -2.62286
H          1.86439        1.66514       -1.49883
N         -2.85853       -0.54336       -2.27358
H         -2.49013        0.37991       -2.04709
C         -4.21507       -0.66256       -1.72778
H         -4.92438        0.06219       -2.14577
H         -4.59902       -1.66971       -1.91189
H         -4.17007       -0.50081       -0.64770
H         -2.86111       -0.64032       -3.28324
H         -2.12079       -3.15117        0.52311
H         -0.60841       -3.53087       -0.34960
H         -0.35624       -3.72513        2.13068
H          0.72702       -2.51176        1.44411
H         -0.85416       -2.00178        3.50693
H         -0.58115       -0.82715        2.39337
H         -1.72648       -1.42617       -1.16944
H         -1.52462       -0.79032        0.32500
C         -1.09092       -2.83578        0.34139
C         -0.32697       -2.73893        1.65866
N         -1.13224       -1.50519       -0.30334
N         -0.96603       -1.75976        2.53114
