41
2msa1dma1tma_54.log	Energy: -1027941.2033150
S         -3.35763       -0.18183        0.04886
O         -2.79912       -1.56181        0.20554
O         -3.17712        0.37996       -1.29842
O         -2.86178        0.74136        1.11465
H         -1.55518        1.53245        0.50326
C         -5.10169       -0.38796        0.34301
H         -5.48866       -1.07390       -0.41062
H         -5.23457       -0.79791        1.34398
H         -5.57528        0.58996        0.25593
S          0.65778       -1.30803       -0.09896
O          0.78593       -0.78684        1.26018
O          0.50049       -0.27309       -1.13939
O         -0.47908       -2.36446       -0.20809
H         -1.43889       -1.97551       -0.04167
C          2.06415       -2.30102       -0.50482
H          2.93752       -1.63657       -0.46559
H          2.13837       -3.09440        0.23901
H          1.91521       -2.71088       -1.50356
N         -0.73957        1.96770       -0.00797
C          0.23971        2.48213        0.97047
C         -1.26150        2.96469       -0.96574
H         -0.30974        1.17959       -0.53069
H         -0.24279        3.23290        1.59808
H          0.58128        1.64302        1.57784
H          1.08449        2.92816        0.44159
H         -1.73116        3.77919       -0.41181
H         -0.43956        3.35105       -1.57105
H         -2.00090        2.46304       -1.59098
N          4.32948        0.11553       -0.02968
C          4.10222        0.22854        1.40311
H          3.02969        0.18531        1.61205
H          4.57998       -0.60982        1.91887
H          4.51245        1.16849        1.81967
C          5.74805        0.07219       -0.33932
H          6.21453       -0.77253        0.17594
H          5.89040       -0.06400       -1.41538
H          6.27513        0.99647       -0.03457
C          3.66357        1.18649       -0.75165
H          3.82165        1.06357       -1.82695
H          2.58680        1.13903       -0.56780
H          4.03585        2.18710       -0.45660
