35
2msa1a1tma_24.log	Energy: -978628.0084409
S          1.67886       -1.36855       -0.07643
O          2.67834       -0.71317       -0.93508
O          0.61168       -2.08946       -0.83799
O          1.07569       -0.44347        0.92441
C          2.52495       -2.64270        0.84014
H          3.32094       -2.17224        1.41781
H          1.80692       -3.13423        1.49682
H          2.93806       -3.35211        0.12293
S         -2.39981       -0.42530       -0.16275
O         -3.81752       -0.38782       -0.45378
O         -1.72344        0.84935        0.11320
O         -1.68841       -1.14758       -1.36641
H         -0.73788       -1.46447       -1.15424
C         -2.08392       -1.49685        1.22307
H         -2.61981       -1.07670        2.07530
H         -2.46155       -2.49053        0.98271
H         -1.00706       -1.49954        1.40284
N         -0.03570        1.69892        2.60677
H         -0.19102        1.93833        3.57962
H          0.52900        0.85417        2.56500
H         -0.93239        1.46267        2.18750
N          0.78066        2.14679       -0.41746
C          0.70247        1.72617       -1.84278
H          1.36171        0.86991       -1.98970
H         -0.33066        1.45555       -2.05958
H          1.01968        2.56297       -2.46872
C         -0.08298        3.32561       -0.15005
H         -1.10447        3.07614       -0.43263
H         -0.03609        3.53464        0.91811
H          0.29189        4.16603       -0.73824
C          2.18112        2.39096        0.01765
H          2.16088        2.59855        1.08770
H          2.76370        1.49255       -0.18724
H          2.57386        3.24574       -0.53726
H          0.43420        1.35242        0.15000
