26
2msa2a_23.log	Energy: -904648.2538021
S         -2.08202       -0.67375        0.00053
O         -2.98174        0.21214       -0.75650
O         -1.95895       -0.37575        1.43477
O         -0.71587       -0.70455       -0.67887
C         -2.69742       -2.33906       -0.15822
H         -2.75808       -2.58117       -1.21911
H         -2.01059       -3.01034        0.35766
H         -3.68445       -2.37258        0.30361
S          2.53038       -0.08619       -0.03920
O          2.12054        1.28542        0.30809
O          2.84775       -0.32785       -1.43751
O          1.47280       -1.11181        0.49606
H          0.54290       -0.98069        0.05452
C          3.91013       -0.52744        0.98529
H          3.63299       -0.37413        2.02759
H          4.15812       -1.57027        0.78992
H          4.73424        0.12704        0.70020
N         -0.23436        2.03031       -1.03503
H         -0.95610        2.40418       -0.33259
H          0.70454        2.00698       -0.60280
H         -0.48514        1.03924       -1.21662
H         -0.23064        2.56696       -1.89673
N         -2.18738        2.62358        0.83190
H         -3.03104        2.32968        0.34289
H         -2.37414        3.48990        1.32513
H         -2.01673        1.88514        1.51626
