40
2msa1dma1eda_416.log	Energy: -1038012.7099423
S         -0.77288        1.85306       -0.34411
O         -1.93564        2.48207        0.29062
O         -1.14000        0.80930       -1.35129
O          0.22161        1.29400        0.63039
H          0.38597       -0.20941        0.66933
C          0.11004        3.11399       -1.24040
H         -0.56054        3.52489       -1.99519
H          0.40704        3.88410       -0.52814
H          0.98679        2.65796       -1.70121
S          1.02016       -2.10113       -0.37239
O          2.10174       -2.89504        0.17529
O          0.37917       -1.22791        0.78666
O         -0.09064       -2.82793       -1.01040
H         -1.81496       -2.18281       -0.87045
C          1.65786       -0.90798       -1.51870
H          2.39721       -0.28682       -0.99121
H          2.12433       -1.48230       -2.32076
H          0.81793       -0.31849       -1.89142
N          3.75619        0.77251        0.36068
C          3.51459        0.10481        1.63576
C          3.53956        2.21070        0.43561
H          4.70630        0.58438        0.05832
H          2.47566        0.27385        1.93246
H          3.65825       -0.97251        1.52221
H          4.16281        0.47298        2.44855
H          2.48458        2.39106        0.66420
H          4.14880        2.70771        1.20993
H          3.76741        2.67118       -0.53081
H         -3.52393       -2.38695        0.97178
H         -1.86876       -1.88940        1.40853
H         -3.77028       -0.45138        2.41529
H         -2.48004        0.42234        1.60104
H         -5.18899        0.43224        0.88123
H         -3.93149        1.25264        0.21050
H         -3.31380       -1.38648       -1.09140
H         -1.94703       -0.53592       -0.75512
C         -2.78240       -1.58784        0.89532
C         -3.31761       -0.26199        1.43633
N         -2.45204       -1.43531       -0.54929
N         -4.26158        0.33278        0.49044
