40
2msa1dma1eda_356.log	Energy: -1038016.8371913
S         -3.03350       -0.81270        0.34550
O         -4.02394       -1.86945        0.32086
O         -3.44995        0.58093        0.44358
O         -2.13355       -1.00040       -0.95133
H         -1.56508       -0.18726       -1.12382
C         -1.87637       -1.13076        1.66341
H         -2.42729       -1.04750        2.60135
H         -1.48605       -2.14126        1.53782
H         -1.08824       -0.37575        1.60706
S         -0.06177        1.97914       -0.41394
O         -0.51646        0.98038       -1.43126
O          1.12235        2.72671       -0.86629
O          0.16463        1.32071        0.91724
H          1.76819        0.84448        0.98829
C         -1.40836        3.11491       -0.18219
H         -1.59205        3.60443       -1.13886
H         -2.27887        2.53796        0.13606
H         -1.10994        3.84075        0.57425
N          2.74666        0.47449        0.87134
C          3.09661       -0.36810        2.03121
C          3.66456        1.61066        0.64104
H          2.67479       -0.09627       -0.01648
H          2.98322        0.21694        2.94561
H          2.44570       -1.24155        2.03907
H          4.13025       -0.70582        1.93516
H          3.70849        2.22295        1.54346
H          4.65930        1.22728        0.40541
H          3.26517        2.20580       -0.18065
H          2.18442       -3.52448       -1.86446
H          1.06581       -3.86206       -0.54364
H          0.27887       -1.98214       -1.89706
H          0.58244       -1.49212       -0.23454
H          2.52695       -1.04487       -2.38917
H          1.44671        0.04933       -1.84689
H          3.18243       -3.89041        0.40550
H          3.63777       -2.48883       -0.28461
C          1.79681       -3.13439       -0.90812
C          1.07158       -1.82216       -1.15687
N          2.84190       -2.98262        0.10755
N          2.00541       -0.75824       -1.56418
