41
2msa1dma1tma_16.log	Energy: -1027957.2272838
S         -1.82170       -0.97604       -0.67703
O         -0.83849       -1.87739       -1.30508
O         -2.02997        0.31242       -1.37125
O         -1.52090       -0.76465        0.78369
H         -0.77459        1.24677        0.54884
C         -3.39331       -1.82790       -0.72262
H         -3.65179       -1.99382       -1.76883
H         -3.28735       -2.77893       -0.20018
H         -4.14373       -1.20335       -0.23684
S          2.26659        0.56236       -0.66325
O          3.20662        1.68430       -0.71444
O          1.12982        0.78329        0.28817
O          2.88612       -0.77156       -0.38127
H          1.73434       -1.58802        0.46388
C          1.52268        0.40361       -2.27995
H          1.02797        1.34417       -2.52596
H          2.32104        0.19756       -2.99378
H          0.79623       -0.41040       -2.24928
N          1.02219       -1.97333        1.14369
C          1.46877       -1.60866        2.50024
C          0.83265       -3.41814        0.92092
H          0.13368       -1.47144        0.94220
H          2.42226       -2.09653        2.70879
H          1.59895       -0.52666        2.52465
H          0.71860       -1.92211        3.22900
H          1.78955       -3.92876        1.04242
H          0.10998       -3.80407        1.64311
H          0.45028       -3.55158       -0.09076
N         -1.09424        2.20507        0.78614
C         -2.55899        2.16886        1.01523
H         -3.03468        1.84685        0.09004
H         -2.76717        1.44066        1.79834
H         -2.89367        3.16599        1.31030
C         -0.35205        2.60649        2.00670
H         -0.63072        1.93070        2.81612
H          0.71232        2.51165        1.79672
H         -0.62043        3.63364        2.26347
C         -0.73980        3.05691       -0.37877
H          0.34431        3.04943       -0.48577
H         -1.20575        2.61719       -1.26045
H         -1.10885        4.06933       -0.19951
