32
2msa2ma_121.log	Energy: -953959.0687523
S         -1.98207        0.83677       -0.21728
O         -2.71774       -0.22786        0.52927
O         -1.68574        0.46295       -1.60630
O         -0.75734        1.27183        0.53614
H          0.35644        0.24341        0.68177
C         -3.05005        2.26017       -0.22008
H         -3.96663        1.98868       -0.74394
H         -3.25930        2.53250        0.81415
H         -2.53461        3.06790       -0.73994
S          1.77402       -1.03361       -0.45705
O          3.14817       -1.35512       -0.13798
O          1.10885       -0.42888        0.85003
O          0.91625       -2.14386       -0.92091
H         -0.63384       -2.42579       -0.31306
C          1.67779        0.27117       -1.65178
H          2.10954        1.17704       -1.20950
H          2.23957       -0.07233       -2.52153
H          0.62403        0.42469       -1.89865
N         -1.48375       -2.59276        0.27409
H         -2.03407       -1.68877        0.30878
C         -1.06093       -2.97677        1.64211
H         -1.93970       -3.07797        2.27825
H         -0.50473       -3.91301        1.60306
H         -0.41444       -2.18584        2.02144
H         -2.05356       -3.30925       -0.16973
N          1.88443        2.92669        0.23407
H          1.95753        3.90862       -0.00799
C          2.61708        2.63965        1.46732
H          2.27494        3.20859        2.34443
H          2.52378        1.57487        1.69524
H          3.67954        2.85019        1.31549
H          0.89664        2.71062        0.34671
