32
2msa1a1dma_80.log	Energy: -953960.5868860
S          0.81437        1.51201        0.23981
O          0.54191        0.61295        1.37303
O          0.39587        0.89196       -1.07690
O          2.23142        1.95764        0.14814
H          3.06355        0.89066       -1.02851
C         -0.19626        2.96018        0.43259
H         -1.23685        2.62945        0.42298
H          0.06581        3.42465        1.38346
H          0.01024        3.63327       -0.39937
S         -2.77309       -0.45274       -0.14387
O         -3.92828       -1.19815       -0.60055
O         -2.84367        0.99711       -0.00397
O         -1.57061       -0.81675       -1.12395
H         -0.86110       -0.10472       -1.09813
C         -2.21953       -1.13315        1.40610
H         -3.00274       -0.93744        2.13976
H         -2.07971       -2.20619        1.27359
H         -1.28864       -0.63261        1.68129
N          2.94148        0.09629       -1.69239
H          3.61156        0.11292       -2.45451
H          1.97269        0.23900       -2.01473
H          2.96264       -0.83074       -1.11660
N          2.78512       -2.09633       -0.07149
C          1.36396       -2.47584       -0.07111
C          3.22995       -1.62601        1.24915
H          3.34093       -2.90453       -0.33792
H          0.76844       -1.60421        0.20766
H          1.06337       -2.79659       -1.07131
H          1.15305       -3.28359        0.64240
H          2.65431       -0.73679        1.52021
H          3.08329       -2.38540        2.02876
H          4.29050       -1.36416        1.20616
