37
2msa1ma1eda_57.log	Energy: -1013370.8139603
S          2.03143        1.18331       -0.48555
O          1.50472        1.33552        0.90645
O          0.95458        1.14006       -1.49011
O          2.99871        0.05103       -0.58157
H          2.62491       -1.27175        0.33226
C          3.00084        2.64490       -0.81639
H          3.78621        2.71504       -0.06384
H          3.42972        2.54415       -1.81351
H          2.34005        3.51073       -0.76755
S         -1.34089       -2.11216       -0.38889
O         -1.91615       -3.45268       -0.34820
O         -0.33459       -1.84452        0.70095
O         -2.33088       -0.99294       -0.39531
H         -1.61383        0.24641        0.44991
C         -0.43145       -1.95135       -1.91995
H         -1.14235       -2.06680       -2.73904
H          0.04106       -0.96635       -1.94645
H          0.31516       -2.74633       -1.96234
N          2.24192       -1.97165        1.01904
H          1.19616       -2.03527        0.81898
C          2.44816       -1.47382        2.39768
H          1.93946       -2.13248        3.10155
H          3.51516       -1.43011        2.61827
H          2.02475       -0.47013        2.44295
H          2.67160       -2.88071        0.86924
H         -1.28732        3.17917        0.21873
H         -1.33111        1.98698       -1.09384
H         -3.59161        3.05702       -0.78807
H         -3.63479        1.32447       -0.43504
H         -3.74033        3.48246        1.53103
H         -4.62378        2.10628        1.44864
H         -0.24932        1.16023        0.93001
H         -1.74560        1.32774        1.72639
C         -1.72750        2.23220       -0.10799
C         -3.24987        2.28683       -0.08464
N         -1.28486        1.17325        0.82642
N         -3.70349        2.49790        1.29209
