38
2msa2dma_69.log	Energy: -1003283.9268437
S          2.98286        0.48732       -0.12927
O          2.22960        1.72018        0.15968
O          2.79747       -0.08922       -1.45332
O          2.72051       -0.57089        0.98941
H          1.70163       -0.84844        1.01746
C          4.70331        0.81574        0.15248
H          5.01091        1.55222       -0.59020
H          4.82174        1.20689        1.16229
H          5.25072       -0.11728        0.02174
S         -0.52056       -1.80819        0.01261
O         -1.52503       -2.69768        0.58211
O          0.31561       -1.11934        1.07208
O         -1.06328       -0.77459       -0.92064
H         -0.84952        0.77299       -0.27730
C          0.62506       -2.77793       -0.94873
H          1.07224       -3.52169       -0.28827
H          0.05768       -3.26440       -1.74257
H          1.38200       -2.11071       -1.36561
N         -0.59191        1.71139        0.11388
C         -1.08528        1.80544        1.50641
C         -1.11499        2.76301       -0.78150
H          0.44288        1.73242        0.11978
H         -2.17480        1.77775        1.47567
H         -0.69967        0.94586        2.05504
H         -0.72649        2.73580        1.95021
H         -2.20096        2.66356       -0.81174
H         -0.82567        3.74266       -0.39717
H         -0.69279        2.61636       -1.77594
N         -3.64465        0.56812       -0.21206
C         -4.74270        1.04516       -1.03652
C         -4.10170       -0.14540        0.97367
H         -3.04755       -0.05779       -0.74795
H         -5.31110        1.80720       -0.49041
H         -4.34981        1.50707       -1.94770
H         -5.44898        0.25046       -1.33160
H         -4.56760        0.55820        1.67485
H         -4.83716       -0.93453        0.74741
H         -3.24970       -0.62102        1.46632
