37
2msa1ma1eda_568.log	Energy: -1013343.8286372
S         -2.84880        0.06248       -0.38534
O         -4.23755        0.44562       -0.22095
O         -2.52678       -1.30178       -0.80482
O         -2.08369        0.36732        0.96081
H         -1.35052       -0.35038        1.19660
C         -2.08316        1.19655       -1.52500
H         -2.58228        1.07232       -2.48683
H         -2.23416        2.20758       -1.14496
H         -1.02083        0.95974       -1.60098
S          2.50421        0.29374       -0.45498
O          1.12441        0.53957       -0.88765
O          3.44556       -0.15985       -1.46957
O          2.48360       -0.73518        0.74229
H          2.16944       -1.70616        0.35923
C          3.12089        1.73870        0.36710
H          3.24228        2.50189       -0.40317
H          2.37771        2.05011        1.10752
H          4.08223        1.49328        0.81738
N          0.06064        2.61593        1.18816
H          0.05049        1.88940        0.47730
C          0.12547        3.93157        0.55940
H         -0.68993        4.14570       -0.14860
H          0.11511        4.70802        1.32944
H          1.06909        4.02797        0.01250
H         -0.80636        2.50883        1.70379
H         -0.07453       -3.48697        1.78708
H         -1.57429       -2.88953        1.05198
H         -0.33834       -3.65806       -0.76196
H         -0.15812       -1.90311       -0.81984
H          1.86654       -3.75846        0.27057
H          1.95257       -2.95545       -1.15009
H         -0.53387       -1.40363        2.74185
H          0.61592       -1.01277        1.64445
C         -0.50204       -2.70220        1.14577
C          0.10033       -2.79701       -0.24840
N         -0.33571       -1.36577        1.74579
N          1.57821       -2.90605       -0.20425
