37
2msa1ma1eda_111.log	Energy: -1013361.2873249
S         -2.53000       -0.44465       -0.20304
O         -2.58076       -1.24176        1.03301
O         -1.95957       -1.17020       -1.36854
O         -1.84963        0.87899        0.00592
C         -4.21017       -0.04231       -0.64279
H         -4.74448       -0.97858       -0.80498
H         -4.65230        0.51543        0.18277
H         -4.19351        0.55613       -1.55372
S          1.16443        2.33951       -0.00946
O          2.19906        3.12838       -0.64551
O          1.56856        1.18447        0.79622
O          0.17267        1.86658       -1.14377
H         -0.64958        1.39878       -0.74847
C          0.13919        3.38051        1.00908
H          0.74836        3.71116        1.85098
H         -0.18380        4.22986        0.40726
H         -0.71481        2.79073        1.34702
N          0.29650       -1.28426        1.84658
H          0.58853       -0.31369        1.73425
C          1.00047       -1.92205        2.95797
H          0.82676       -1.43082        3.92304
H          0.68347       -2.96497        3.04409
H          2.07678       -1.91220        2.76212
H         -0.71562       -1.28292        1.98061
H          1.41905       -1.68910       -2.49811
H          1.09537       -0.34800       -1.38839
H          3.52459       -0.88292       -1.40986
H          2.81203       -1.15844        0.17501
H          3.57049       -3.23552       -1.74890
H          3.93292       -3.13238       -0.16156
H         -0.47237       -2.10128       -1.04767
H          0.80758       -3.19738       -0.72713
C          1.44145       -1.37960       -1.44867
C          2.83318       -1.52884       -0.85414
N          0.49378       -2.22743       -0.69014
N          3.20987       -2.94539       -0.84581
H          0.46133       -1.90998        0.35995
