42
2msa2eda_96.log	Energy: -1072768.0026867
S          3.07475       -0.66408        0.21591
O          2.71104       -1.91299        0.91536
O          3.16857        0.54109        1.05442
O          2.14543       -0.42531       -0.96154
C          4.68292       -0.92854       -0.51070
H          5.38759       -1.11397        0.30046
H          4.62657       -1.79042       -1.17559
H          4.96205       -0.03082       -1.06250
S         -2.59192        0.46753       -0.10729
O         -2.96158       -0.73343       -0.88229
O         -2.53315        1.72677       -0.86658
O         -1.31187        0.24258        0.66637
C         -3.84493        0.66558        1.15051
H         -4.80374        0.81027        0.65175
H         -3.85799       -0.23626        1.76374
H         -3.59179        1.53540        1.75712
H         -1.32498       -2.42174       -1.59695
H          0.02975       -3.58159       -1.53442
H         -2.09602       -4.59802       -0.77406
H         -0.88243       -4.59879        0.51189
H         -2.96184       -2.52893        0.30535
H         -2.93822       -3.76770        1.40718
H          0.71781       -1.46955       -0.65700
H         -0.58349       -1.38378        0.37748
C         -0.68910       -3.01659       -0.93722
C         -1.53636       -3.94862       -0.08242
N          0.05863       -2.04946       -0.10018
N         -2.36481       -3.17062        0.82461
H          0.66528       -2.48685        0.60147
H          1.25542        3.29341       -1.57927
H         -0.35377        2.53674       -1.77447
H         -0.58378        4.85622       -0.91874
H         -1.18991        3.65203        0.21700
H          1.33063        5.13387        0.48027
H          0.15527        4.90191        1.59530
H          1.34871        1.11010       -0.61298
H          1.32820        2.21999        0.62662
C          0.36218        2.93910       -1.05667
C         -0.27866        4.05126       -0.23707
N          0.77492        1.84463       -0.15061
N          0.64087        4.47195        0.81830
H         -0.05580        1.34508        0.24313
