35
2msa1ma1dma_314.log	Energy: -978612.0000845
S          2.86064       -0.45814       -0.59183
O          3.77804       -0.99986       -1.57543
O          2.44862       -1.27906        0.54277
O          1.55111        0.00602       -1.37850
H          0.73174       -0.12209       -0.82027
C          3.49986        1.08147        0.01993
H          4.39740        0.84360        0.59315
H          3.75165        1.70127       -0.84133
H          2.73347        1.55546        0.64776
S         -1.27293       -0.78508        1.09337
O         -0.98336        0.09476        2.22616
O         -0.76274       -0.26541       -0.21963
O         -2.73990       -1.08954        0.92719
H         -3.29170       -0.40676       -0.28944
C         -0.47832       -2.34834        1.37777
H          0.59810       -2.16862        1.40292
H         -0.84465       -2.73838        2.32766
H         -0.73707       -3.01733        0.55694
N          0.87564        2.43757        1.48689
H          0.34793        1.63372        1.82440
C          0.20011        3.03702        0.34230
H         -0.84528        3.33189        0.53163
H          0.74634        3.92633        0.01226
H          0.20664        2.32229       -0.48611
H          0.93107        3.09762        2.25483
N         -3.63285        0.12236       -1.17935
C         -3.04060       -0.53580       -2.36909
C         -3.24620        1.54722       -1.03343
H         -4.64808        0.04054       -1.20486
H         -1.95769       -0.51347       -2.24684
H         -3.38205       -1.57061       -2.40342
H         -3.34310       -0.00755       -3.27506
H         -2.16087        1.58371       -0.93573
H         -3.57798        2.11283       -1.90598
H         -3.70210        1.94274       -0.12548
