35
2msa1a1tma_69.log	Energy: -978616.5996599
S         -0.70524       -0.79568       -0.30823
O         -0.51806        0.43027       -1.11528
O         -0.91464       -0.58780        1.11609
O          0.46581       -1.79455       -0.58654
H          1.37976       -1.51337       -0.19069
C         -2.05537       -1.69228       -1.01317
H         -2.94504       -1.07058       -0.84274
H         -1.85371       -1.84145       -2.07344
H         -2.13387       -2.64439       -0.48816
S          3.45169        0.06864        0.22559
O          2.74221       -1.23935        0.33590
O          2.94074        1.08219        1.18494
O          3.47483        0.59251       -1.16663
H          2.18019        1.91121       -1.28189
C          5.13344       -0.28875        0.68199
H          5.13015       -0.69025        1.69524
H          5.52459       -1.02086       -0.02437
H          5.70040        0.64087        0.63323
N          1.41195        2.30609       -0.70465
H          1.21090        3.27796       -0.91591
H          1.77526        2.16545        0.25959
H          0.57844        1.68865       -0.83760
N         -4.33175        0.32934        0.18635
C         -3.64749        1.60431        0.33597
H         -2.66771        1.44128        0.79221
H         -3.49938        2.06212       -0.64680
H         -4.21778        2.31075        0.96899
C         -5.63130        0.49935       -0.43912
H         -5.51289        0.97253       -1.41861
H         -6.10548       -0.47605       -0.58484
H         -6.31210        1.12650        0.16776
C         -4.44221       -0.35508        1.46574
H         -4.91514       -1.33188        1.32247
H         -3.44414       -0.51131        1.88418
H         -5.04658        0.21613        2.19530
