22
2msa1a_19.log	Energy: -869133.9671953
S         -1.71633        0.03580       -0.16050
O         -0.78436        1.14069        0.00568
O         -2.59068        0.03041       -1.33283
O         -2.61745       -0.07319        1.13806
H         -3.61386        0.00547        0.88657
C         -0.80427       -1.48531       -0.09822
H         -0.11313       -1.48324       -0.94269
H         -0.24246       -1.50950        0.83623
H         -1.51160       -2.31149       -0.16459
S          2.64912       -0.07264        0.01786
O          2.19937       -0.66329        1.27052
O          2.22624       -0.64013       -1.24528
O          4.27802       -0.09729        0.05487
H          4.54549       -0.62101        0.82358
C          2.35424        1.67418        0.00621
H          1.26966        1.79388       -0.05116
H          2.75314        2.09787        0.92716
H          2.84487        2.09258       -0.87246
N         -5.09660        0.16735        0.28517
H         -5.54601        1.04722        0.51703
H         -5.75825       -0.58219        0.45727
H         -4.86523        0.17752       -0.70679
