38
2msa2dma_239.log	Energy: -1003269.4355855
S         -1.61934       -1.32010        0.62075
O         -0.94057       -1.62613       -0.67957
O         -3.03607       -1.69477        0.62124
O         -1.40381        0.13302        0.96892
H         -1.96015        1.00688       -0.12501
C         -0.76111       -2.23230        1.87902
H         -0.90658       -3.29247        1.66988
H          0.29593       -1.96612        1.81882
H         -1.19355       -1.96570        2.84338
S          2.46365       -0.78755       -0.61370
O          3.10415       -1.77539       -1.46350
O          2.16677       -1.14515        0.77141
O          1.12526       -0.25727       -1.30022
H          0.33348       -0.84497       -1.03687
C          3.41545        0.71117       -0.64097
H          4.39085        0.45706       -0.22335
H          3.52234        1.02634       -1.67927
H          2.91744        1.47233       -0.03010
N         -2.45812        1.51580       -0.95010
C         -3.90800        1.22748       -0.81857
C         -1.86515        1.04099       -2.22568
H         -2.28524        2.51388       -0.84097
H         -4.03259        0.14409       -0.76579
H         -4.26846        1.66477        0.11249
H         -4.44708        1.64430       -1.67097
H         -1.99967       -0.03991       -2.28053
H         -2.35508        1.53720       -3.06538
H         -0.79600        1.25586       -2.21943
N          1.54669        2.78399        1.23358
C          1.25669        1.84633        2.31441
C          0.46868        2.87460        0.26637
H          1.74904        3.70169        1.61397
H          1.16792        0.83793        1.90212
H          2.08334        1.85173        3.02938
H          0.31924        2.07536        2.84734
H          0.35313        1.89631       -0.21229
H         -0.50221        3.15006        0.72329
H          0.71992        3.61312       -0.50169
