25
2msa1ma_81.log	Energy: -893785.6809959
S         -1.28407       -0.98153       -0.13044
O         -2.55450       -1.54561       -0.53004
O         -0.70874        0.12233       -0.90164
O         -0.23216       -2.18917       -0.13327
H          0.68449       -1.83738       -0.19549
C         -1.35055       -0.49311        1.57413
H         -2.07238        0.33100        1.61048
H         -1.67930       -1.35218        2.15877
H         -0.35677       -0.15422        1.87216
S          2.49716        0.34165        0.09624
O          1.87101        0.87206        1.28764
O          2.28989       -1.07207       -0.22957
O          4.09996        0.55147        0.18005
H          4.50155       -0.25691        0.53294
C          2.15169        1.36626       -1.30324
H          1.07577        1.27487       -1.46451
H          2.43668        2.38817       -1.05357
H          2.71497        0.98539       -2.15413
N         -3.20956        1.90098        0.29136
H         -3.30109        2.88331        0.52580
C         -4.48434        1.35322       -0.17549
H         -4.90204        1.85923       -1.05796
H         -4.34490        0.29749       -0.42030
H         -5.22022        1.41402        0.63150
H         -2.50374        1.82810       -0.43585
