37
2msa1ma1eda_371.log	Energy: -1013354.1035651
S         -1.14750        1.71526       -0.48532
O         -0.68567        1.74106        0.91342
O         -2.60129        1.76195       -0.67121
O         -0.57002        0.50993       -1.22344
C         -0.42890        3.12317       -1.31026
H          0.65429        3.07323       -1.19356
H         -0.71003        3.08479       -2.36258
H         -0.82484        4.02141       -0.83574
S          2.18104       -1.57005       -0.39646
O          2.64005       -2.52137       -1.39118
O          1.02791       -1.96639        0.43140
O          1.87051       -0.18392       -1.08285
H          0.88262        0.08410       -1.08436
C          3.51136       -1.12279        0.68134
H          3.79575       -2.02585        1.22307
H          4.33570       -0.77642        0.05697
H          3.14948       -0.33038        1.35099
N          2.17977        1.54900        1.97219
H          1.18753        1.43418        1.77076
C          2.75430        2.47586        0.99943
H          2.24974        3.45257        0.94971
H          3.80991        2.65105        1.23003
H          2.70984        2.01574        0.00724
H          2.24612        1.93539        2.90780
H         -2.16196       -2.12824        1.89066
H         -1.69156       -0.44102        1.55788
H         -4.19318       -0.68653        1.86226
H         -3.74249       -0.06136        0.27316
H         -4.70966       -2.76340        0.85826
H         -5.12196       -1.75646       -0.36281
H         -0.70311       -2.15362        0.05306
H         -2.29742       -2.36678       -0.56144
C         -2.25292       -1.29956        1.18329
C         -3.71241       -0.94909        0.91228
N         -1.63628       -1.73434       -0.09783
N         -4.34979       -2.06874        0.21294
H         -1.43768       -0.90278       -0.69934
