34
2msa1a1eda_117.log	Energy: -988704.7507751
S         -2.47305       -0.60759       -0.16447
O         -3.11436        0.72144       -0.11988
O         -2.37107       -1.30632        1.12552
O         -1.12276       -0.50143       -0.85274
C         -3.46093       -1.62721       -1.24285
H         -4.44771       -1.72844       -0.79046
H         -3.52820       -1.13595       -2.21339
H         -2.97686       -2.59997       -1.33164
S          2.17032       -1.11886       -0.05193
O          2.04192       -0.19642        1.08123
O          2.68535       -0.54021       -1.29050
O          0.84085       -1.89690       -0.28645
H         -0.00298       -1.29944       -0.50596
C          3.21657       -2.47296        0.42565
H          4.20543       -2.05522        0.61641
H          2.80430       -2.92721        1.32602
H          3.24993       -3.18759       -0.39608
N         -0.45264        0.58535        2.50741
H          0.46361        0.15482        2.39330
H         -1.15445       -0.14112        2.34518
H         -0.54553        0.91676        3.46111
H         -0.31338        4.05301       -0.52365
H          0.10150        3.81257        1.18911
H          2.16913        3.82819       -0.24455
H          1.93327        2.24845        0.51935
H          1.58535        2.84170       -2.29862
H          2.05753        1.43293       -1.56185
H         -1.72575        2.25274        0.11618
H         -0.42962        1.52222       -0.56260
C          0.11393        3.35177        0.19823
C          1.52698        2.93807       -0.22781
N         -0.71423        2.13043        0.22290
N          1.44160        2.23843       -1.49970
H         -0.58380        1.57619        1.13334
