38
2msa1ma1tma_54.log	Energy: -1003282.1472645
S         -2.35383        0.36164        0.07651
O         -1.76749        1.61232        0.55368
O         -2.43396       -0.76560        0.99531
O         -1.63757       -0.06169       -1.25636
H         -1.03962       -0.94292       -1.15013
C         -3.98944        0.72641       -0.52499
H         -4.57243        1.07902        0.32643
H         -3.91544        1.50166       -1.28731
H         -4.41677       -0.18809       -0.93529
S          0.83323       -1.98303        0.02801
O          2.14131       -2.50319       -0.36844
O         -0.16654       -2.01706       -1.10379
O          0.87691       -0.60747        0.61283
H          1.14433        0.64874       -0.42262
C          0.14622       -3.01821        1.29961
H          0.03374       -4.02182        0.88901
H          0.83637       -3.01959        2.14357
H         -0.81903       -2.59084        1.57524
N          0.96826        2.14095        1.96302
H          0.56263        2.96304        2.39905
C          1.81747        1.42730        2.91729
H          1.30677        1.13719        3.84638
H          2.18684        0.51576        2.44128
H          2.67780        2.05072        3.18364
H          0.18002        1.55707        1.68873
N          1.58194        1.27094       -1.15280
C          2.93748        1.57340       -0.63017
H          2.80850        2.09965        0.31667
H          3.45852        0.62911       -0.46715
H          3.47463        2.18656       -1.35773
C          1.63560        0.47029       -2.40148
H          2.16536       -0.46230       -2.20077
H          0.61623        0.24303       -2.71217
H          2.15172        1.04817       -3.17149
C          0.75974        2.49455       -1.30998
H         -0.25122        2.19709       -1.58609
H          0.73667        3.00377       -0.34717
H          1.20874        3.12293       -2.08344
