31
2msa1tma_29.log	Energy: -943113.5054187
S          0.35781        1.11841        0.04990
O          0.08952        0.22600       -1.09061
O          0.35441        0.49540        1.36558
O         -0.67853        2.32076        0.00522
H         -1.59588        1.93420        0.00041
C          1.86557        1.98488       -0.23400
H          2.65384        1.21456       -0.20963
H          1.79958        2.47087       -1.20700
H          1.98925        2.71225        0.56849
S         -3.19695       -0.51165       -0.07321
O         -4.52616       -0.98741       -0.36470
O         -2.95748        0.93800       -0.02573
O         -2.21635       -1.15138       -1.14717
H         -1.35499       -0.65702       -1.18576
C         -2.62744       -1.20277        1.46319
H         -3.28855       -0.82377        2.24365
H         -2.70144       -2.28760        1.38893
H         -1.59923       -0.87726        1.63542
N          3.75971       -0.62640       -0.03963
C          3.18034       -1.51477       -1.03715
H          2.10422       -1.60909       -0.87047
H          3.33052       -1.09607       -2.03667
H          3.63205       -2.52352       -1.01038
C          5.18225       -0.43435       -0.26981
H          5.34450       -0.01976       -1.26933
H          5.58505        0.27072        0.46365
H          5.75209       -1.37887       -0.19061
C          3.50466       -1.11351        1.30845
H          3.90369       -0.40399        2.03961
H          2.42743       -1.19725        1.47398
H          3.97042       -2.09962        1.49129
