32
2msa1a1dma_135.log	Energy: -953952.8646227
S          3.18225        0.62952       -0.08309
O          2.65503        1.33347       -1.23731
O          4.61771        0.69245        0.19770
O          2.77211       -0.90355       -0.20428
H          3.57243       -1.50421        0.01022
C          2.28355        1.14338        1.35854
H          2.46732        2.21179        1.48066
H          1.21843        0.94524        1.20439
H          2.66540        0.58800        2.21531
S         -1.55919        0.08747       -0.16193
O         -0.83641        0.44609        1.06595
O         -2.51347        1.10975       -0.64780
O         -2.27850       -1.24845       -0.02591
H         -3.66653       -1.02269        0.19154
C         -0.34909       -0.18247       -1.43824
H          0.19525        0.74982       -1.59476
H          0.34168       -0.95607       -1.10180
H         -0.86904       -0.48634       -2.34680
N          4.98820       -2.26108        0.31630
H          5.32639       -2.86053       -0.42903
H          5.07099       -2.76493        1.19280
H          5.58005       -1.43318        0.36022
N         -4.74290       -0.76650        0.36545
C         -5.31590       -0.29390       -0.91505
C         -4.79022        0.24983        1.44290
H         -5.21457       -1.61608        0.66961
H         -4.70234        0.54366       -1.25037
H         -5.25704       -1.10107       -1.64586
H         -6.35504        0.01106       -0.77244
H         -4.22645        1.11821        1.09846
H         -5.82657        0.51868        1.65907
H         -4.30835       -0.15944        2.33120
