35
2msa1ma1dma_115.log	Energy: -978626.3325200
S         -2.28471       -0.92567       -0.37176
O         -3.13369       -1.36841       -1.46793
O         -2.87923       -0.02271        0.62814
O         -0.98430       -0.26926       -0.87991
C         -1.71193       -2.37451        0.50510
H         -2.58329       -2.84240        0.96420
H         -1.25121       -3.05435       -0.21293
H         -0.99214       -2.05714        1.26123
S          2.08509       -0.98113        0.19004
O          1.25239       -0.65840        1.35079
O          3.06924        0.02296       -0.21127
O          1.18505       -1.38224       -1.01823
H          0.21063       -0.93214       -0.97809
C          2.94710       -2.50560        0.49017
H          2.21816       -3.26427        0.77319
H          3.47092       -2.78567       -0.42359
H          3.65461       -2.32254        1.29932
N          1.79937        2.71980       -0.43411
H          2.26456        3.61164       -0.30049
C          1.43693        2.53276       -1.84673
H          2.30037        2.52104       -2.52114
H          0.91067        1.58068       -1.95786
H          0.75928        3.33144       -2.16145
H          2.45831        1.98660       -0.16865
N         -0.62922        1.96575        0.73893
C         -1.67156        2.87597        0.22083
C         -0.69700        1.74650        2.19828
H         -0.74128        1.05515        0.24666
H         -1.57111        3.85114        0.70139
H         -1.53940        2.97669       -0.85697
H         -2.64828        2.43625        0.42483
H         -0.57968        2.70416        2.70967
H         -1.66400        1.29966        2.43186
H          0.10453        1.06295        2.47612
H          0.32409        2.32472        0.44783
