43
2msa1eda1tma_19.log	Energy: -1062692.1160998
S         -3.02418       -0.68973       -0.01215
O         -2.89968       -2.13203       -0.27494
O         -2.74550        0.18402       -1.17237
O         -2.20342       -0.26254        1.18041
C         -4.72161       -0.39329        0.46276
H         -5.35943       -0.69800       -0.36750
H         -4.93903       -0.98672        1.35107
H         -4.84489        0.67005        0.67019
S          3.08748        0.50009       -0.04927
O          2.80167        1.86374       -0.51073
O          3.31266       -0.51625       -1.09175
O          2.01373        0.02166        0.92069
C          4.57592        0.57755        0.93447
H          5.38772        0.89291        0.27831
H          4.42460        1.30433        1.73266
H          4.77606       -0.41259        1.34402
H          0.58602        2.57146       -0.91219
H         -0.65589        1.36092       -1.34501
H         -1.54319        3.67433       -1.65475
H         -2.44527        2.73885       -0.46081
H         -0.49875        4.85498        0.14357
H         -2.04417        4.71744        0.66369
H          0.60152        1.08999        0.85290
H         -0.35986        2.38445        1.36674
C         -0.39517        2.16520       -0.65689
C         -1.48562        3.22677       -0.65457
N         -0.29501        1.59665        0.71325
N         -1.21567        4.19040        0.41626
H         -1.08432        0.92297        0.90786
N          0.92938       -2.28433        0.00166
C          1.99932       -3.27658       -0.25868
H          2.71874       -2.83057       -0.94548
H          2.49256       -3.51609        0.68437
H          1.55145       -4.17758       -0.68343
C         -0.04083       -2.76057        1.02273
H          0.51660       -3.04503        1.91665
H         -0.74766       -1.96054        1.24778
H         -0.59183       -3.61248        0.62194
C          0.26480       -1.86752       -1.26243
H         -0.47944       -1.10402       -1.04266
H          1.03296       -1.47447       -1.92914
H         -0.24571       -2.72742       -1.69841
H          1.39100       -1.42019        0.38734
