40
2msa1dma1eda_566.log	Energy: -1038006.8860583
S         -2.74058       -0.48702       -0.52753
O         -4.18480       -0.40883       -0.41798
O         -2.11108       -1.80409       -0.65708
O         -2.10120        0.25125        0.71398
H         -1.28638       -0.26227        1.10198
C         -2.21713        0.53270       -1.88674
H         -2.63559        0.09483       -2.79394
H         -2.62073        1.53276       -1.72537
H         -1.12643        0.54138       -1.91479
S          2.30466        0.26869       -0.69860
O          0.88413        0.37545       -1.08817
O          3.06775       -0.71808       -1.49684
O          2.43448       -0.05942        0.77812
H          2.36248       -1.69650        0.74020
C          3.03684        1.87486       -0.89596
H          3.02619        2.10973       -1.96081
H          2.41515        2.58058       -0.33701
H          4.05739        1.83735       -0.51538
N          0.08279        2.79907        0.61791
C         -1.11063        3.57730        0.32973
C          0.21363        2.48356        2.02946
H          0.05385        1.93450        0.08308
H         -1.03596        4.55840        0.81255
H         -1.18748        3.74360       -0.74896
H         -2.03914        3.09354        0.67783
H          0.36504        3.40708        2.60005
H         -0.67320        1.97380        2.44895
H          1.09325        1.84929        2.17848
H          0.45750       -3.00339        2.37920
H         -1.08646       -2.82185        1.52919
H          0.32400       -3.71570       -0.11457
H          0.25861       -1.98551       -0.49587
H          2.49228       -3.40884        0.84381
H          2.50463       -2.57147       -0.61311
H         -0.33894       -0.85146        2.86719
H          0.75052       -0.51875        1.67562
C         -0.06420       -2.44071        1.58944
C          0.58586       -2.71916        0.24277
N         -0.12782       -1.00227        1.88526
N          2.08269       -2.63529        0.32417
