34
2msa1a1eda_301.log	Energy: -988690.0038445
S          0.85985        1.61051       -0.30498
O          0.51121        0.45204       -1.19621
O          0.82836        1.23156        1.13400
O          0.00874        2.79775       -0.57746
H         -1.29758        2.89034        0.77137
C          2.53856        1.99868       -0.71609
H          3.12941        1.08364       -0.57954
H          2.55845        2.32640       -1.75601
H          2.86535        2.79796       -0.05039
S         -2.53442       -0.86892       -0.08638
O         -3.13107        0.35906        0.47740
O         -1.73481       -1.66972        0.82555
O         -1.76851       -0.53191       -1.40163
H         -0.82389       -0.09696       -1.26974
C         -3.86018       -1.83949       -0.75523
H         -4.40619       -1.23116       -1.47534
H         -3.42713       -2.72072       -1.22752
H         -4.49959       -2.12188        0.08153
N         -1.58760        2.33558        1.59861
H         -2.27219        1.61577        1.28133
H         -1.95041        2.90804        2.35395
H         -0.70057        1.84403        1.84384
H          4.05385       -2.97857        0.25843
H          4.64311       -1.57476        1.17739
H          2.50702       -2.48676        2.03589
H          2.37358       -0.78505        1.55584
H          0.59530       -2.44186        0.78235
H          1.16956       -1.41915       -0.31632
H          4.80988       -1.13274       -1.15426
H          3.22440       -1.42259       -1.38007
C          3.86282       -1.91906        0.48870
C          2.50643       -1.80867        1.17496
N          3.90096       -1.06970       -0.70715
N          1.43573       -2.21139        0.26306
