32
2msa2ma_39.log	Energy: -953969.9119591
S         -2.63348        0.32096        0.28704
O         -3.82144        0.90084        0.87431
O         -1.75909       -0.25914        1.46377
O         -1.79149        1.17679       -0.56346
H         -0.11336        1.64344       -0.74121
C         -3.06289       -1.11514       -0.66564
H         -3.65232       -1.77220       -0.02615
H         -3.65426       -0.77011       -1.51465
H         -2.13733       -1.59713       -0.99110
S          1.10675       -1.54819       -0.35082
O          1.93986       -0.69319       -1.23699
O         -0.02331       -2.21100       -1.00880
O          0.67809       -0.76777        0.86922
H         -0.81303       -0.49946        1.17741
C          2.19558       -2.81725        0.26791
H          2.55364       -3.39363       -0.58539
H          3.02711       -2.33954        0.78637
H          1.62454       -3.44986        0.94756
N          0.88820        1.84487       -0.90902
H          1.34255        2.00570        0.03379
C          1.07490        2.96730       -1.84443
H          2.14086        3.13070       -2.00542
H          0.59457        2.73506       -2.79488
H          0.62649        3.86750       -1.42370
H          1.30675        0.95435       -1.24860
N          2.18812        1.70922        1.55781
H          2.14378        2.32650        2.36134
C          3.57230        1.32820        1.25549
H          4.08322        0.83175        2.09000
H          3.56578        0.64583        0.40036
H          4.14726        2.21671        0.97985
H          1.64682        0.87049        1.76901
