32
2msa2ma_113.log	Energy: -953959.4468707
S         -2.61414       -0.88571       -0.16777
O         -3.80075       -1.62578       -0.53339
O         -2.43195        0.43941       -0.78848
O         -1.36952       -1.79102       -0.48670
H         -0.49280       -1.43164       -0.10819
C         -2.54070       -0.65441        1.59352
H         -3.41706       -0.06634        1.86937
H         -2.57355       -1.63769        2.06250
H         -1.61930       -0.11702        1.83321
S          1.25477        0.39398        0.77127
O          0.83160       -1.02178        0.55196
O          0.21540        1.19347        1.45325
O          1.69831        1.04303       -0.50687
H          0.42262        1.81899       -1.16970
C          2.69428        0.30858        1.80624
H          2.41640       -0.21566        2.72077
H          3.47018       -0.22437        1.24704
H          3.00352        1.33119        2.02437
N          4.22150       -0.84185       -0.89436
H          3.57893       -0.10852       -1.18287
C          3.65664       -2.15808       -1.19174
H          3.48010       -2.34760       -2.26114
H          4.32901       -2.93507       -0.81578
H          2.70214       -2.25787       -0.66884
H          5.09556       -0.70125       -1.38845
N         -0.51072        2.25319       -1.41798
H         -0.54444        2.44723       -2.41608
C         -0.74493        3.46572       -0.59835
H         -1.74769        3.84756       -0.78896
H         -0.63909        3.17020        0.44528
H          0.00161        4.21942       -0.84833
H         -1.22825        1.52720       -1.19984
