40
2msa1dma1eda_431.log	Energy: -1038011.7123466
S          0.23912       -1.56308        1.01126
O         -0.82628       -2.55737        0.86824
O          0.28612       -0.61995       -0.18874
O          1.60339       -2.10563        1.23686
H          2.84167       -1.51169       -0.03226
C         -0.15372       -0.53696        2.40914
H         -1.15236       -0.12815        2.25054
H         -0.11517       -1.16914        3.29679
H          0.57274        0.27446        2.45763
S         -3.00759        0.43243       -0.57144
O         -3.95624        1.21162       -1.33906
O         -2.48024        0.97234        0.68322
O         -1.78766        0.10097       -1.52925
H         -0.99339       -0.20947       -0.98607
C         -3.69040       -1.17415       -0.22760
H         -4.51835       -1.02879        0.46750
H         -4.04568       -1.59695       -1.16723
H         -2.90644       -1.79384        0.21591
N          2.78842       -1.14495       -1.00030
C          2.65439       -2.29255       -1.92391
C          3.88040       -0.19984       -1.31479
H          1.86298       -0.66503       -0.93215
H          3.58536       -2.86115       -1.92819
H          1.83524       -2.92112       -1.57439
H          2.44060       -1.92009       -2.92642
H          4.83706       -0.71991       -1.24008
H          3.74193        0.16846       -2.33308
H          3.81944        0.62870       -0.59901
H          2.30255        4.16336        0.41293
H          2.82037        3.26666       -1.02037
H          0.38053        3.38345       -0.94926
H          0.89696        1.70575       -0.73337
H         -0.03639        3.45788        1.40077
H         -0.65308        2.02576        0.92393
H          3.87412        2.60063        1.18293
H          2.42817        1.92115        1.53424
C          2.32320        3.16253       -0.04804
C          0.88735        2.69219       -0.25979
N          3.04707        2.18343        0.76838
N          0.21543        2.54671        1.02923
