32
2msa1a1dma_08.log	Energy: -953977.7188671
S         -2.41636       -0.52154       -0.29172
O         -3.75701       -1.07401       -0.14577
O         -1.61669       -0.52529        0.99373
O         -2.34609        0.84845       -0.88017
H         -1.01136        1.57590       -0.26942
C         -1.50255       -1.56993       -1.41447
H         -2.04084       -1.57980       -2.36289
H         -0.49968       -1.15848       -1.54762
H         -1.46408       -2.57784       -0.99815
S          2.22739       -0.41503       -0.25991
O          1.83306        0.29335        1.00455
O          1.57412        0.17048       -1.44130
O          2.04077       -1.88769       -0.11994
H          0.95244       -2.17888        1.14206
C          3.98378       -0.17033       -0.44807
H          4.48721       -0.57889        0.42799
H          4.29775       -0.69308       -1.35179
H          4.17158        0.89956       -0.54019
N          0.31330       -1.95605        1.94478
H          0.07712       -2.77021        2.50299
H         -0.55872       -1.46847        1.54383
H          0.81771       -1.25961        2.49345
N         -0.23911        2.07599        0.24940
C         -0.82544        2.63422        1.48379
C          0.38964        3.06920       -0.64239
H          0.46728        1.35922        0.50743
H         -1.57310        3.38234        1.21677
H         -1.30481        1.81625        2.02185
H         -0.03831        3.08789        2.08907
H         -0.36869        3.77695       -0.98085
H          1.17667        3.59704       -0.09990
H          0.81803        2.53457       -1.48985
