38
2msa1ma1tma_109.log	Energy: -1003277.5942440
S         -2.32523       -0.49612        0.00766
O         -2.10384        0.51923        1.04035
O         -1.69132       -1.79550        0.18153
O         -1.99493        0.10305       -1.40376
H         -0.96507        0.11853       -1.62877
C         -4.07878       -0.72534       -0.17585
H         -4.44470       -1.12837        0.76912
H         -4.53798        0.23977       -0.38740
H         -4.24980       -1.43122       -0.98794
S          1.50551       -0.36382       -1.18178
O          2.83197        0.05924       -1.62155
O          0.40564        0.26665       -2.00495
O          1.23279       -0.09316        0.27187
H          0.68031        1.36165        0.54071
C          1.33765       -2.12138       -1.37317
H          1.55603       -2.36286       -2.41367
H          2.03952       -2.59741       -0.68295
H          0.31202       -2.38326       -1.10601
N          2.41020       -2.52778        1.71948
H          3.13685       -2.76600        2.38494
C          1.08185       -2.82138        2.25464
H          0.86760       -2.35036        3.22674
H          0.32650       -2.47203        1.54651
H          0.96237       -3.90333        2.36943
H          2.47978       -1.53552        1.51327
N          0.56976        2.40995        0.70312
C         -0.40874        2.93682       -0.28105
H         -0.07538        2.65618       -1.28085
H         -1.37594        2.47822       -0.07996
H         -0.46391        4.02348       -0.17813
C          0.10947        2.59610        2.09879
H         -0.84268        2.07870        2.21363
H          0.84813        2.15941        2.77189
H          0.00101        3.66421        2.30302
C          1.92538        2.96636        0.47288
H          2.61877        2.50436        1.17558
H          2.23789        2.71715       -0.54226
H          1.90101        4.04923        0.61543
