31
2msa1tma_18.log	Energy: -943120.4653019
S          1.70183       -1.44243        0.01113
O          0.94271       -1.36878       -1.25210
O          0.86142       -1.41817        1.22503
O          2.78908       -0.39555        0.06843
C          2.59105       -2.99014        0.01090
H          1.85731       -3.79526       -0.03809
H          3.24413       -3.01144       -0.86155
H          3.16985       -3.05396        0.93230
N          1.73828        1.97622        0.00459
C          0.83810        2.05213        1.18153
H          0.08755        1.26788        1.09739
H          1.43112        1.89645        2.08312
H          0.35061        3.02962        1.20241
C          2.82857        2.97014        0.07306
H          3.37325        2.83276        1.00779
H          3.50642        2.81167       -0.76654
H          2.40906        3.97845        0.02967
C          0.98798        2.05315       -1.27360
H          1.69255        1.92030       -2.09508
H          0.24975        1.25269       -1.29213
H          0.48991        3.02294       -1.34413
H          2.19388        0.99515        0.03184
S         -2.87955        0.06294       -0.12342
O         -1.91884        1.14859       -0.19659
O         -4.00713        0.02152       -1.04099
O         -3.50614        0.10484        1.38122
H         -4.46851        0.04932        1.29892
C         -2.02354       -1.48316       -0.10367
H         -1.29492       -1.47354        0.71116
H         -2.76336       -2.27640        0.00267
H         -1.47468       -1.56059       -1.04473
