32
2msa1a1dma_99.log	Energy: -953957.7881122
S          2.99144       -0.79002       -0.11656
O          4.37650       -1.19413       -0.03427
O          2.60592        0.13601       -1.19992
O          2.59371       -0.14961        1.26617
H          1.71176        0.35895        1.22831
C          1.93984       -2.21393       -0.24381
H          2.14483       -2.67937       -1.20853
H          2.19803       -2.88733        0.57356
H          0.90218       -1.87704       -0.17300
S         -0.82738        0.79734        0.53883
O          0.46937        1.27113        1.14551
O         -0.85053       -0.65739        0.32792
O         -1.11005        1.59889       -0.69268
H          0.29834        2.23222       -1.18829
C         -2.10936        1.19581        1.70130
H         -1.87358        0.68993        2.63815
H         -2.12985        2.27698        1.83720
H         -3.04622        0.81461        1.28110
N          1.32095        2.52151       -1.24252
H          1.52302        3.12019       -2.03785
H          1.88521        1.63996       -1.27336
H          1.53271        2.99135       -0.36353
N         -3.94378       -0.84225       -0.16604
C         -4.08361       -0.22880       -1.47755
C         -4.92948       -1.87986        0.07966
H         -3.00399       -1.21872       -0.07282
H         -5.03867        0.30669       -1.53048
H         -3.27696        0.49303       -1.62974
H         -4.06354       -0.95963       -2.30563
H         -5.92962       -1.43320        0.11496
H         -4.94277       -2.66828       -0.69407
H         -4.73973       -2.35091        1.04821
