35
2msa1a1tma_37.log	Energy: -978624.0066562
S         -1.29242       -1.45352       -0.18194
O         -2.40285       -1.91732       -1.01432
O         -1.66576       -0.84163        1.10596
O         -0.39241       -0.47790       -0.95668
C         -0.23438       -2.84347        0.17067
H         -0.82877       -3.56320        0.73427
H          0.09305       -3.27721       -0.77480
H          0.61391       -2.49222        0.76109
S          2.72298       -0.05525        0.19959
O          2.43495       -0.98867        1.27855
O          2.35048        1.34608        0.40067
O          2.11770       -0.57731       -1.16112
H          1.08932       -0.59261       -1.10701
C          4.44947       -0.13590       -0.21065
H          4.99508        0.21422        0.66612
H          4.70075       -1.17245       -0.43316
H          4.63556        0.51044       -1.06765
N         -4.54765       -0.10311        0.53826
H         -4.34203       -0.71092       -0.25211
H         -5.51819       -0.24278        0.79782
H         -3.95996       -0.45279        1.29082
N         -0.98909        2.04216       -0.13046
C         -2.42314        2.23367       -0.46997
H         -2.55034        2.06191       -1.53973
H         -3.04300        1.51787        0.07969
H         -2.70733        3.25898       -0.22007
C         -0.74204        2.15855        1.33056
H         -1.33734        1.39541        1.83058
H          0.31782        1.97719        1.51150
H         -1.02592        3.16230        1.65585
C         -0.10875        2.94012       -0.91618
H          0.92841        2.71058       -0.67121
H         -0.29043        2.76371       -1.97714
H         -0.34373        3.97742       -0.66645
H         -0.74252        1.05738       -0.40663
