37
2msa1ma1eda_212.log	Energy: -1013362.1817455
S          1.87426       -1.37834        0.40038
O          0.68083       -0.96689        1.33700
O          3.09993       -0.93183        1.05321
O          1.62472       -0.91425       -0.96008
C          1.80548       -3.15559        0.41341
H          1.95669       -3.49726        1.43701
H          0.82510       -3.45281        0.03797
H          2.59852       -3.51811       -0.24122
S         -2.36751       -0.76712       -0.37645
O         -1.59745        0.10779       -1.29425
O         -3.26763       -0.03437        0.52878
O         -1.46710       -1.72938        0.35597
H         -0.24555       -1.25896        0.93449
C         -3.38109       -1.81475       -1.40090
H         -2.72813       -2.38901       -2.05787
H         -3.95636       -2.47223       -0.74917
H         -4.04328       -1.17143       -1.98061
N          3.11783        1.88547       -0.28833
H          3.58948        2.68389        0.12450
C          3.50322        1.72615       -1.69624
H          4.58360        1.60635       -1.84273
H          2.99897        0.84230       -2.09214
H          3.17161        2.59870       -2.26652
H          3.40095        1.06212        0.24415
H          0.24681        3.75518        0.45582
H         -0.38371        3.37089       -1.16341
H         -2.20566        3.92715        0.55991
H         -2.39089        2.35173       -0.22381
H         -1.84979        2.80788        2.54279
H         -2.37451        1.44485        1.75313
H          1.35051        1.78784       -0.17478
H          0.11043        1.37458        0.91408
C         -0.36035        3.05018       -0.11984
C         -1.77092        2.92494        0.47003
N          0.30283        1.73123       -0.03465
N         -1.70459        2.21043        1.74020
H         -0.13963        1.04976       -0.67900
