40
2msa1dma1eda_122.log	Energy: -1038025.0077536
S          0.34547        2.00316        0.27383
O          1.76281        1.66031        0.51803
O         -0.55850        1.74804        1.40455
O         -0.14543        1.33658       -0.99633
C          0.28484        3.75042       -0.07499
H          0.92192        3.95327       -0.93571
H         -0.75068        4.01790       -0.28619
H          0.64651        4.27708        0.80839
S         -2.89208       -0.81440       -0.33199
O         -1.68263       -1.63257       -0.18508
O         -4.09038       -1.42957       -0.85991
O         -2.56609        0.43247       -1.25229
H         -1.63835        0.80118       -1.10004
C         -3.23514       -0.07658        1.24771
H         -3.41807       -0.89028        1.95066
H         -2.36861        0.52145        1.54082
H         -4.12434        0.54422        1.13780
N          1.75387       -1.16984        1.62268
C          2.88499       -2.03141        1.95333
C          0.59818       -1.35178        2.50019
H          2.03835       -0.19145        1.64948
H          2.58878       -3.07937        1.83532
H          3.70180       -1.81885        1.25929
H          3.23424       -1.89200        2.98697
H          0.16090       -2.34066        2.33021
H          0.86376       -1.26376        3.56370
H         -0.14933       -0.59299        2.26075
H          2.44643       -2.56984       -1.60541
H          1.45538       -1.89426       -2.92222
H          3.72329       -0.93395       -2.90901
H          2.49035        0.30374       -2.65442
H          4.57433        0.17877       -1.12341
H          3.12791        0.47059       -0.42376
H          0.09787       -1.82925       -0.98399
H          1.32093       -1.26305        0.03886
C          1.96051       -1.66550       -1.97977
C          2.98943       -0.56049       -2.18827
N          0.94476       -1.25331       -0.98604
N          3.66466       -0.22707       -0.93934
H          0.60416       -0.28704       -1.14955
