30
2msa1eda_134.log	Energy: -953189.1314072
S          3.42504       -0.36819       -0.04794
O          4.28862       -1.11487       -0.95048
O          3.19663        1.04668       -0.25978
O          4.05440       -0.55367        1.44593
H          4.93235       -0.94669        1.34085
C          1.87111       -1.18801        0.16156
H          1.31361       -1.05379       -0.76829
H          2.06480       -2.23993        0.36895
H          1.31970       -0.69990        0.96805
S         -0.95077        1.12266       -0.14433
O         -0.73413        0.15748       -1.24564
O         -0.64267        0.56469        1.19419
O         -2.35178        1.68724       -0.16057
H         -3.15695        0.72697        0.74092
C          0.13118        2.50349       -0.43322
H         -0.11386        2.92613       -1.40771
H         -0.03148        3.23440        0.35894
H          1.15859        2.13428       -0.41697
H         -4.98576       -1.66096        0.90102
H         -5.30503       -0.13178        0.03612
H         -4.38337       -1.98280       -1.46632
H         -3.40550       -0.50918       -1.46069
H         -2.57915       -3.06830       -0.57171
H         -1.70174       -1.66712       -0.73972
H         -3.97714        0.12961        2.13878
H         -2.77221       -0.76202        1.39048
C         -4.53076       -0.83741        0.34423
C         -3.72509       -1.36032       -0.85152
N         -3.57964       -0.13569        1.24176
N         -2.55358       -2.07965       -0.36345
