37
2msa1ma1eda_347.log	Energy: -1013355.5167227
S         -0.63587       -2.39459        0.18463
O         -0.81723       -3.75960       -0.25688
O         -0.42507       -1.51167       -1.11308
O          0.47647       -2.11847        1.11418
H          1.73925       -0.97010        0.93647
C         -2.12114       -1.75084        0.90722
H         -2.87936       -1.68588        0.12308
H         -2.40348       -2.43751        1.70625
H         -1.90231       -0.75289        1.29700
S         -0.33010        1.88555        0.40715
O          1.08308        2.12565        0.81669
O         -1.19266        1.37291        1.47716
O         -0.38064        1.03729       -0.83650
H         -0.42919       -0.51833       -0.92079
C         -0.96874        3.46952       -0.09997
H         -0.92749        4.13758        0.76058
H         -0.35293        3.84736       -0.91575
H         -2.00009        3.32621       -0.42428
N         -3.46049        0.22165       -1.31208
H         -2.50349        0.52925       -1.46210
C         -4.16662        1.15564       -0.44033
H         -4.28761        2.17043       -0.85347
H         -5.16510        0.76672       -0.21855
H         -3.62289        1.23793        0.50537
H         -3.90865        0.15285       -2.21863
H          2.88363       -1.30960       -1.05217
H          1.87253        0.12926       -1.31126
H          4.23721        0.52328       -2.08151
H          3.76612        1.61332       -0.77243
H          5.51102       -0.72323       -0.49502
H          5.75956        0.80977        0.01967
H          3.30041       -0.33398        1.19272
H          1.97913        0.70180        0.90625
C          2.73363       -0.26449       -0.76966
C          3.98547        0.56864       -1.01440
N          2.41900       -0.22475        0.68038
N          5.05036        0.10178       -0.12538
