42
2msa2eda_45.log	Energy: -1072770.1264799
S          2.47653       -1.58009       -0.29145
O          3.00144       -0.34903       -0.94627
O          1.63954       -2.42122       -1.16377
O          1.78277       -1.25306        0.99781
C          3.91812       -2.53375        0.15096
H          4.45246       -2.77759       -0.76751
H          4.54137       -1.93101        0.81155
H          3.58429       -3.44126        0.65416
S         -2.35989        1.53265       -0.10657
O         -1.70527        2.73499        0.43319
O         -3.09388        0.69706        0.85777
O         -1.37208        0.69235       -0.89781
C         -3.54650        2.09169       -1.31964
H         -4.01511        1.21919       -1.77527
H         -4.28839        2.69956       -0.80096
H         -3.02211        2.68367       -2.06985
H         -1.45440       -2.96120        1.89746
H         -2.09431       -1.29111        1.92264
H         -3.88151       -2.89950        1.29258
H         -3.52645       -1.74255        0.01067
H         -2.72373       -4.56564        0.03866
H         -3.44819       -3.71661       -1.15871
H          0.09669       -1.59426        0.71934
H         -0.74062       -2.48184       -0.40894
C         -1.87307       -2.15249        1.29135
C         -3.12604       -2.60385        0.55268
N         -0.84694       -1.75202        0.30398
N         -2.77832       -3.65429       -0.40256
H         -1.11552       -0.86773       -0.18414
H          0.49845        2.50812        1.14858
H          1.52840        1.05623        1.32472
H          2.78120        3.13902        1.98011
H          3.51410        2.32614        0.58968
H          1.82324        4.72101        0.43505
H          3.35614        4.52595       -0.11260
H          0.22642        1.34235       -0.81604
H          1.35917        2.55379       -1.16815
C          1.40160        2.00347        0.79684
C          2.63457        2.88776        0.92134
N          1.19547        1.68986       -0.64158
N          2.47653        4.04950        0.04443
H          1.88277        0.95736       -0.93305
