40
2msa1dma1eda_413.log	Energy: -1038011.8717277
S         -0.34143        2.22370       -0.08292
O         -0.51123        1.64096        1.26000
O         -1.03935        1.54903       -1.17140
O          1.17097        2.39555       -0.40731
H          1.69117        1.46624       -0.41102
C         -0.85313        3.92000       -0.01669
H         -1.92138        3.91892        0.20191
H         -0.29293        4.42066        0.77217
H         -0.65828        4.37074       -0.98933
S          2.21872       -1.05097       -0.99074
O          3.48136       -1.69194       -1.31765
O          2.40159        0.27934       -0.28426
O          1.27795       -1.88900       -0.17932
H          0.95197       -1.22008        1.25007
C          1.35945       -0.67680       -2.50735
H          2.02777       -0.08120       -3.13008
H          1.12447       -1.62324       -2.99490
H          0.44774       -0.12240       -2.27923
N          0.71232       -0.72271        2.15416
C          1.96817       -0.29115        2.80839
C         -0.13348       -1.59888        2.98887
H          0.18365        0.11807        1.85885
H          2.54759       -1.17606        3.07611
H          2.53133        0.30888        2.09437
H          1.73038        0.28734        3.70264
H          0.42716       -2.50133        3.23650
H         -0.41532       -1.07337        3.90279
H         -1.02777       -1.86606        2.42699
H         -3.99304        0.14546       -0.61358
H         -4.79025       -0.69245        0.71238
H         -2.39821       -0.56522        1.13347
H         -2.85020       -2.26800        0.86277
H         -1.56669       -0.51662       -1.09497
H         -0.95581       -1.90796       -0.49580
H         -4.06113       -1.96328       -1.81384
H         -4.99703       -2.60627       -0.64577
C         -4.11257       -0.83586       -0.13710
C         -2.73972       -1.29097        0.37165
N         -4.74343       -1.73196       -1.09619
N         -1.81952       -1.43760       -0.74812
