34
2msa1a1eda_196.log	Energy: -988699.8253215
S          1.56605       -1.78499        0.05761
O          0.92780       -2.95649        0.62602
O          1.99267       -0.73200        1.00347
O          0.70832       -1.13433       -1.06934
H         -0.35520       -1.16378       -0.94141
C          3.01029       -2.25322       -0.86500
H          3.72219       -2.67041       -0.15219
H          2.71453       -2.99854       -1.60257
H          3.41996       -1.36465       -1.34470
S         -2.53398       -0.13875       -0.12131
O         -1.73461       -1.14607       -0.90003
O         -2.43435        1.22375       -0.67228
O         -2.23894       -0.20819        1.33523
H         -0.84325        0.52291        1.92621
C         -4.21446       -0.68773       -0.31852
H         -4.45009       -0.67276       -1.38249
H         -4.29199       -1.69704        0.08487
H         -4.85562        0.00111        0.23158
N          0.07415        1.00692        2.08522
H          0.82954        0.34388        1.83780
H          0.16118        1.30506        3.05185
H          0.10268        1.83961        1.40442
H          2.34648        3.85946       -0.83451
H          2.81655        2.40479       -1.68948
H          0.45124        2.76886       -2.01692
H          0.68858        1.29307       -1.08262
H         -0.04505        3.87343        0.11602
H         -1.04828        2.60004       -0.17626
H          2.49665        2.70424        1.21142
H          2.77696        1.26182        0.47638
C          2.24681        2.76592       -0.82566
C          0.78202        2.38339       -1.04240
N          2.88644        2.26840        0.38369
N         -0.08420        2.85971        0.04918
