42
2msa2eda_543.log	Energy: -1072743.8285558
S          2.03245       -1.04321       -1.04724
O          1.88271       -2.38046       -1.62003
O          2.64829       -0.99233        0.30491
O          0.74363       -0.25381       -1.05098
C          3.12662       -0.11662       -2.11721
H          4.08831       -0.62999       -2.13865
H          2.68690       -0.08803       -3.11464
H          3.23827        0.89060       -1.71315
S         -2.79574       -0.20338       -0.55963
O         -2.89301       -1.50254        0.08979
O         -2.16837        0.90177        0.13876
O         -4.31696        0.26059       -0.90520
H         -4.91301       -0.45275       -0.63570
C         -2.09638       -0.36326       -2.17671
H         -1.03375       -0.58452       -2.02419
H         -2.61391       -1.17054       -2.69435
H         -2.22335        0.59054       -2.68932
H         -0.32366       -0.63084        3.52346
H         -1.52113       -0.63761        2.19566
H         -0.75804       -2.92570        2.73444
H         -0.30421       -2.48400        1.08906
H          1.43443       -3.49259        2.78434
H          1.92364       -2.31049        1.76106
H          0.15712        1.11750        1.85868
H          1.35991       -0.09563        1.86150
C         -0.48317       -0.83898        2.46287
C         -0.09727       -2.27923        2.14959
N          0.36742        0.09651        1.68896
N          1.29087       -2.52317        2.53155
H          0.26672       -0.04456        0.66236
H          0.84459        4.64333        0.95739
H          1.75377        3.63508        2.10075
H          2.64029        3.46288       -0.21391
H          2.08990        1.90784        0.39431
H          1.06694        3.30298       -1.84904
H          0.71413        1.77215       -1.31790
H         -0.66507        3.36480        2.33534
H         -0.73762        2.79819        0.79780
C          1.06944        3.60593        1.24516
C          1.74335        2.89709        0.06832
N         -0.14050        2.86694        1.62379
N          0.81016        2.74705       -1.04507
