42
2msa2eda_401.log	Energy: -1072753.0575886
S         -2.62729       -0.55524       -0.73943
O         -2.50248       -1.66588       -1.66198
O         -1.95213        0.70340       -1.10505
O         -2.23888       -0.95499        0.72609
H         -1.27889       -1.32085        0.87197
C         -4.34124       -0.17351       -0.46834
H         -4.74388        0.16438       -1.42364
H         -4.84326       -1.08113       -0.13481
H         -4.40951        0.61404        0.28140
S          1.28446       -1.89842        0.57288
O          0.03417       -1.75289        1.38736
O          2.37429       -1.03457        1.08288
O          1.02595       -1.70650       -0.87312
H          1.09188        0.01061       -1.23561
C          1.80075       -3.58731        0.79094
H          1.96473       -3.75643        1.85510
H          1.00997       -4.23415        0.41102
H          2.72296       -3.73163        0.22802
H         -0.38055        3.80404        2.40262
H         -1.88483        2.90938        2.49523
H         -0.06484        1.51456        3.30068
H         -0.75138        0.81483        1.83519
H          1.71515        2.40414        1.87032
H          1.62201        0.77332        1.71332
H         -0.34597        3.50429        0.07269
H         -1.65040        2.51315        0.08871
C         -0.93065        2.96354        1.95902
C         -0.17137        1.66038        2.21616
N         -1.20592        3.29321        0.56697
N          1.12667        1.64879        1.52803
H          3.07374        2.44734       -0.48444
H          3.76876        2.50521       -2.10624
H          1.32342        2.83855       -2.15720
H          1.80217        1.37361       -3.05289
H          0.91298        1.34234       -0.20346
H         -0.14079        1.06245       -1.48648
H          4.72640        0.61721       -1.23135
H          3.36093        0.05833       -0.52020
C          3.14279        1.90284       -1.44085
C          1.75298        1.83691       -2.06546
N          3.71943        0.57344       -1.32394
N          0.85086        1.02532       -1.21728
