43
2msa1eda1tma_96.log	Energy: -1062682.4605363
S          0.09007        1.94465        0.67432
O          1.37947        1.94685        1.37888
O         -1.01720        1.35934        1.49625
O          0.14566        1.28448       -0.66288
C         -0.36038        3.64498        0.37617
H         -0.43385        4.14601        1.34154
H          0.41724        4.10136       -0.23666
H         -1.32122        3.66345       -0.13931
S         -2.96985       -0.56480       -0.77611
O         -4.25818       -1.19458       -0.98124
O         -1.81021       -1.41316       -0.48276
O         -3.14320        0.50162        0.37123
H         -2.26356        0.80872        0.78995
C         -2.56251        0.42409       -2.19813
H         -2.46029       -0.25828       -3.04307
H         -3.38126        1.12340       -2.36840
H         -1.62167        0.93736       -1.98726
H          1.98992       -2.07992        1.79923
H          1.36734       -0.41129        1.94919
H         -0.02252       -2.15271        3.20078
H         -0.93498       -1.22421        2.01174
H         -0.53999       -4.01562        2.01159
H         -1.37716       -3.10358        0.91783
H          1.99949       -1.16959       -0.34842
H          0.62763       -2.22922       -0.21597
C          1.15315       -1.41304        1.57142
C         -0.15212       -1.97828        2.12822
N          1.04866       -1.34426        0.09094
N         -0.49542       -3.20589        1.40835
H          0.43321       -0.57048       -0.21263
N          3.53465       -0.53751       -0.90508
C          3.14782        0.40323       -1.95769
H          2.73872       -0.14808       -2.80966
H          2.37287        1.07501       -1.57938
H          4.00884        0.99672       -2.30711
C          4.06494        0.18160        0.25545
H          3.31207        0.88095        0.63070
H          4.30938       -0.53301        1.04733
H          4.97949        0.74240        0.00036
C          4.48912       -1.52266       -1.40029
H          4.73224       -2.23582       -0.60746
H          4.05276       -2.07185       -2.23944
H          5.42579       -1.05159       -1.74294
