42
2msa2eda_618.log	Energy: -1072717.4440354
S         -1.43579        1.89711       -0.85387
O         -2.68702        2.60791       -1.04166
O         -1.43306        0.71378        0.01534
O         -0.37000        2.92113       -0.31174
H          0.41092        2.48194        0.23098
C         -0.79333        1.41485       -2.43735
H         -1.50052        0.69968       -2.86017
H         -0.73455        2.30886       -3.05853
H          0.18868        0.95711       -2.29051
S          2.26004       -0.97761       -0.89676
O          2.09238        0.26934       -1.66342
O          1.12579       -1.91781       -0.96024
O          2.66118       -0.67661        0.53097
H          1.59114       -0.72257        1.72005
C          3.67103       -1.82506       -1.58760
H          3.44602       -2.04501       -2.63157
H          4.53692       -1.16722       -1.51253
H          3.83057       -2.74610       -1.02689
H         -2.18915       -2.31304       -1.08496
H         -3.25880       -1.09312       -0.39085
H         -2.99147        0.69213        1.94069
H         -2.82493       -2.12303        1.92958
H         -0.40626       -2.16709        0.31245
H         -3.33667        0.59039        2.59466
H         -4.73413       -2.77504       -0.95032
H         -3.78552       -3.98185       -0.37625
C         -2.90518       -2.12439       -0.27167
C         -2.18188       -2.14807        1.04544
N         -4.05769       -3.01555       -0.23672
N         -0.92105       -2.16257        1.20361
H          2.20550        1.57887        3.11980
H          0.85047        2.69833        2.93555
H         -0.17567        0.70925        3.66410
H         -0.48474        0.74808        1.91637
H          1.37923       -0.99524        3.36391
H          0.13851       -1.39466        2.24342
H          2.28489        2.82492        1.04755
H          2.09416        1.24350        0.68987
C          1.30586        1.79301        2.52386
C          0.29358        0.66401        2.67897
N          1.62822        2.05172        1.11370
N          0.89661       -0.68916        2.52220
