37
2msa1ma1eda_286.log	Energy: -1013358.6521992
S          0.75267        2.05768       -0.13289
O          2.08776        1.82849        0.43512
O         -0.33746        1.62766        0.80914
O          0.55522        1.45691       -1.48069
C          0.55260        3.81553       -0.34304
H          1.32516        4.16218       -1.02960
H         -0.43985        4.00081       -0.75428
H          0.66408        4.28543        0.63416
S         -2.94419       -0.57151        0.22671
O         -2.45383       -1.14543        1.47240
O         -2.51917       -1.24533       -1.01044
O         -2.63532        0.95728        0.14335
H         -1.65257        1.22050        0.40691
C         -4.71828       -0.52301        0.23139
H         -5.06355       -1.55704        0.25107
H         -5.04275        0.01205        1.12322
H         -5.05181       -0.02032       -0.67588
N          4.04899       -0.48154        0.01019
H          4.93132       -0.30856       -0.46068
C          4.27655       -0.69081        1.44175
H          4.80813        0.13187        1.93795
H          3.31126       -0.80333        1.94397
H          4.84274       -1.61482        1.59607
H          3.48158        0.35798       -0.11172
H          1.42428       -0.73270        0.45070
H         -0.12140       -1.50937        0.83644
H          1.92658       -3.00789        1.14948
H          0.73274       -3.68739        0.03318
H          3.13928       -2.20020       -0.77735
H          2.79656       -3.79966       -1.10589
H          0.36785       -0.21631       -1.43656
H          0.91512       -1.77408       -1.84438
C          0.73722       -1.52978        0.16391
C          1.45736       -2.87563        0.16509
N          0.28210       -1.24015       -1.22784
N          2.39271       -2.88354       -0.95600
H         -0.70739       -1.49566       -1.35803
