37
2msa1ma1eda_298.log	Energy: -1013358.7682759
S         -0.07639        2.20343        0.04455
O          0.86931        1.85091        1.12224
O         -1.49850        1.96314        0.39416
O          0.26464        1.52734       -1.25306
C          0.08934        3.95128       -0.25552
H         -0.17194        4.47528        0.66401
H          1.12546        4.14901       -0.53074
H         -0.58724        4.22553       -1.06469
S          2.30839       -1.22792       -0.64571
O          3.21034       -2.21046       -1.20575
O          0.92810       -1.64722       -0.34745
O          2.27454        0.00841       -1.61628
H          1.48353        0.63008       -1.43653
C          2.99456       -0.56587        0.85376
H          3.01093       -1.37321        1.58707
H          4.00644       -0.22525        0.63375
H          2.35922        0.26142        1.18004
N         -0.78294       -0.48874        2.49366
H         -0.17908        0.24272        2.12092
C          0.01460       -1.62039        2.96430
H          0.78371       -1.35875        3.70623
H         -0.64225       -2.37203        3.41408
H          0.50646       -2.08509        2.10515
H         -1.28498       -0.06055        3.26473
H         -2.32695       -2.65899       -0.37827
H         -2.39247       -1.72065        1.14011
H         -4.69964       -2.05082        0.16449
H         -4.24354       -0.34495        0.21595
H         -4.28524       -2.02149       -2.18218
H         -4.92845       -0.53283       -1.95484
H         -0.68225       -0.97883       -0.46841
H         -1.94045       -0.49121       -1.47309
C         -2.58428       -1.69344        0.06607
C         -4.01926       -1.30301       -0.26408
N         -1.67321       -0.67726       -0.50193
N         -4.15088       -1.13348       -1.71092
H         -1.73110        0.23038        0.00687
