34
2msa1a1eda_318.log	Energy: -988688.5384342
S          2.55976        0.22818       -0.15825
O          2.69072       -0.59562        1.05455
O          1.89720        1.51762        0.05290
O          1.88176       -0.57287       -1.30563
H          0.86660       -0.75667       -1.08532
C          4.16813        0.47444       -0.85955
H          4.61839       -0.50341       -1.02808
H          4.05146        1.02216       -1.79416
H          4.74715        1.05108       -0.13800
S         -1.19260       -1.96123       -0.02648
O         -0.48172       -3.22136       -0.19228
O         -0.50500       -0.78756       -0.70042
O         -1.47970       -1.57775        1.39564
H         -0.48377       -0.54981        1.94773
C         -2.78027       -2.07982       -0.81808
H         -2.60954       -2.38842       -1.84990
H         -3.35537       -2.83534       -0.28219
H         -3.26478       -1.10103       -0.78620
N          0.26734        0.15915        2.26807
H          0.14013        0.41878        3.24192
H          0.23083        0.98909        1.67036
H          1.20195       -0.25784        2.11035
H         -3.48308        2.18697        0.58647
H         -2.38872        0.83639        0.84432
H         -1.22697        2.86904        1.48192
H         -0.48761        2.25015       -0.01669
H         -2.33047        4.51851        0.14183
H         -0.80361        4.48296       -0.45467
H         -2.88405        2.09151       -1.74748
H         -1.94370        0.78163       -1.46549
C         -2.55882        1.72105        0.21945
C         -1.39615        2.70174        0.39986
N         -2.77501        1.27737       -1.14965
N         -1.64846        3.93759       -0.33404
