40
2msa1dma1eda_533.log	Energy: -1038008.1994732
S          0.05208        2.43486        0.15701
O          0.56088        3.72348       -0.26849
O          0.84355        1.64678        1.10742
O         -0.21511        1.56997       -1.13395
H         -0.13866        0.56442       -0.95984
C         -1.58014        2.64643        0.83166
H         -1.47171        3.14465        1.79571
H         -2.14339        3.27204        0.13847
H         -2.05782        1.66839        0.93445
S         -0.29890       -1.96917        0.11938
O         -1.33788       -2.83188       -0.43435
O          0.18329       -0.90690       -0.82825
O          0.89136       -2.71273        0.65316
H          2.27412       -2.12086        0.45215
C         -0.99453       -1.10936        1.51675
H         -1.88376       -0.57449        1.16684
H         -1.26708       -1.85817        2.26131
H         -0.24719       -0.41537        1.90444
N         -3.73051        0.08739       -0.05638
C         -4.36982       -1.18335        0.27667
C         -3.27569        0.12502       -1.44448
H         -4.39422        0.84030        0.09667
H         -3.63692       -1.98882        0.16649
H         -4.71035       -1.16321        1.31623
H         -5.23083       -1.41844       -0.37069
H         -2.52612       -0.65727       -1.59491
H         -4.08804       -0.04006       -2.17142
H         -2.80271        1.08776       -1.65557
H          4.69946       -1.30030       -1.11879
H          3.06783       -1.69683       -1.72748
H          3.63670        0.83256       -1.68922
H          2.14119        0.34695       -0.88676
H          4.50888        1.36714        0.39672
H          2.92594        1.38623        0.87220
H          3.88002       -2.63818        0.56159
H          3.51149       -1.07086        1.05990
C          3.62645       -1.18879       -0.94018
C          3.22775        0.28964       -0.83125
N          3.30992       -1.81913        0.36799
N          3.66194        0.81658        0.46124
