34
2msa1a1eda_140.log	Energy: -988705.2096288
S         -1.43120       -1.59558       -0.26804
O         -0.85488       -1.16534        1.04009
O         -0.45365       -1.38978       -1.37719
O         -2.74504       -0.98545       -0.54398
C         -1.68279       -3.35695       -0.15090
H         -0.72002       -3.83015        0.04350
H         -2.38136       -3.54906        0.66364
H         -2.09410       -3.70015       -1.10037
S          2.61172       -0.24836        0.13093
O          1.75129        0.92374        0.31486
O          4.03145       -0.04506       -0.06878
O          2.09068       -1.10177       -1.09092
H          1.08048       -1.17293       -1.14814
C          2.35373       -1.32918        1.52061
H          2.73536       -0.81434        2.40331
H          1.28045       -1.51517        1.60634
H          2.91425       -2.24668        1.34098
N         -3.79612        1.28455        1.10121
H         -4.14994        1.03967        2.02044
H         -3.67342        0.41502        0.57313
H         -4.51370        1.83237        0.63797
H         -0.11817        1.26724       -1.11418
H         -1.84965        1.61642       -1.20420
H         -0.34603        3.52704       -1.99280
H         -1.44220        3.99980       -0.68638
H          1.35949        3.21911       -0.22502
H          0.71156        4.72694       -0.04047
H         -0.76272        0.65114        0.95051
H         -0.37963        2.27947        1.20559
C         -0.91242        1.90254       -0.72498
C         -0.57375        3.37615       -0.92894
N         -1.02446        1.63185        0.73406
N          0.50813        3.73577       -0.01687
H         -2.01926        1.74614        1.04373
