42
2msa2eda_513.log	Energy: -1072746.7178730
S          2.13718       -1.23804       -0.60161
O          2.56239       -2.58059       -0.25954
O          1.76155       -0.32811        0.49599
O          0.97719       -1.31764       -1.64827
H          0.23292       -0.61743       -1.50874
C          3.42847       -0.43183       -1.52176
H          3.68743       -1.07304       -2.36435
H          3.05814        0.53439       -1.86873
H          4.28185       -0.31022       -0.85378
S         -2.21049        0.21012       -0.97139
O         -2.62643       -1.18273       -1.17015
O         -0.78340        0.45839       -1.37704
O         -2.45633        0.72677        0.40837
H         -1.32871        0.22440        1.49123
C         -3.18550        1.24073       -2.04683
H         -4.23321        1.10721       -1.77709
H         -2.87598        2.27604       -1.90508
H         -3.00684        0.91859       -3.07271
H         -0.18073       -1.82212        3.34197
H         -1.78911       -1.08064        3.53761
H         -1.87339       -3.31301        2.33018
H         -2.53405       -1.97631        1.38075
H         -0.04020       -3.35744        0.82423
H         -1.12870       -2.61645       -0.19034
H         -0.15081        0.51504        2.66980
H          0.17807       -0.49023        1.39232
C         -1.03661       -1.39623        2.81140
C         -1.61079       -2.38987        1.79673
N         -0.55613       -0.20328        2.07042
N         -0.66597       -2.57033        0.71056
H          1.70565        4.38003        0.26262
H          0.09664        4.15168       -0.43260
H          0.07349        3.92617        2.02964
H         -0.44921        2.44524        1.21353
H          1.38082        2.36388        3.12927
H          1.77049        1.52581        1.73231
H          2.23283        2.15537       -0.38470
H          0.74510        1.92809       -1.02860
C          0.92388        3.63711        0.07017
C          0.42296        3.09119        1.41173
N          1.45852        2.62984       -0.83833
N          1.50448        2.42038        2.12816
