37
2msa1ma1eda_195.log	Energy: -1013366.0530083
S         -2.13356       -1.28177        0.06069
O         -1.75853       -0.31738       -1.02791
O         -3.55265       -1.61366        0.09311
O         -1.59636       -0.77883        1.37371
H         -1.03382        0.68802        1.53755
C         -1.21139       -2.76885       -0.28515
H         -1.59386       -3.18200       -1.21938
H         -0.15252       -2.51387       -0.37679
H         -1.38468       -3.46897        0.53294
S          2.38537       -0.55675        0.40097
O          3.83625       -0.47622        0.51916
O          1.85465       -1.37693       -0.70862
O          1.73385        0.82746        0.34558
H          1.05935        0.85431       -1.29148
C          1.75530       -1.27652        1.91308
H          2.17617       -2.27928        1.99662
H          2.09601       -0.66744        2.75255
H          0.66404       -1.32361        1.86100
N          0.45906        0.74510       -2.13715
H         -0.26665        0.06028       -1.83762
C          1.23553        0.29826       -3.31081
H          0.55661        0.11556       -4.14379
H          1.95853        1.06778       -3.58148
H          1.75711       -0.61676       -3.03206
H         -0.05769        1.62437       -2.27200
H          0.45350        3.01695       -0.14694
H         -0.71823        4.31284       -0.02991
H         -0.31129        3.55057        2.17360
H         -1.92660        2.92463        1.77229
H          0.52676        1.27021        1.35126
H         -0.26326        1.35899        2.83853
H         -1.66106        1.61034       -0.74527
H         -2.32409        3.07605       -1.05116
C         -0.60245        3.22935        0.06459
C         -0.86309        2.86264        1.52726
N         -1.44143        2.59107       -0.94042
N         -0.38966        1.48563        1.83627
