32
2msa2ma_197.log	Energy: -953958.2726499
S         -1.71312        0.95701       -0.21762
O         -1.57579        2.28796       -0.83547
O         -1.06936        0.80812        1.08343
O         -1.17463       -0.10861       -1.22644
H         -0.38472       -0.67322       -0.83466
C         -3.42559        0.53039       -0.10464
H         -3.89945        1.25579        0.55754
H         -3.85676        0.57374       -1.10472
H         -3.44528       -0.48245        0.31535
S          2.00909       -0.80319       -0.05654
O          0.68760       -1.47802       -0.30135
O          2.27716       -0.50399        1.34951
O          2.16499        0.38185       -0.96112
H          1.57496        1.78876       -0.55624
C          3.21914       -1.98391       -0.61876
H          3.10489       -2.88992       -0.02337
H          3.03785       -2.18731       -1.67381
H          4.20705       -1.54775       -0.46969
N          1.18253        2.72021       -0.21368
H          1.64313        3.47137       -0.72233
C          1.40085        2.82280        1.25228
H          0.98920        3.76283        1.61962
H          0.89683        1.97750        1.71882
H          2.47009        2.76237        1.45111
H          0.17217        2.73172       -0.45280
N         -2.14835       -2.28789        1.05619
H         -1.24074       -1.84207        1.17081
C         -2.05883       -3.33481        0.03945
H         -1.29931       -4.10289        0.24237
H         -3.03044       -3.82834       -0.06191
H         -1.81896       -2.87523       -0.92283
H         -2.38847       -2.68771        1.95720
