43
2msa1eda1tma_136.log	Energy: -1062678.4932833
S          0.12687        1.92521       -0.22774
O         -1.15028        1.50500       -0.90538
O          1.26749        1.91739       -1.14530
O          0.34185        1.13155        1.01745
C         -0.13962        3.60484        0.30674
H         -0.98363        3.61840        0.99679
H          0.76865        3.94931        0.80150
H         -0.34898        4.20732       -0.57735
S         -3.60893       -0.65282        0.15494
O         -2.89283       -1.37371        1.21918
O         -3.44855       -1.17345       -1.19462
O         -3.27680        0.87401        0.22084
H         -2.36748        1.13019       -0.23487
C         -5.32762       -0.60651        0.59508
H         -5.42234       -0.13784        1.57405
H         -5.85978       -0.03989       -0.16837
H         -5.67457       -1.63974        0.62450
H         -0.55436       -2.66418       -1.13603
H         -0.68974       -0.90856       -1.38151
H          1.45358       -1.89260       -2.37698
H          1.72564       -0.61334       -1.20061
H          2.34280       -3.41353       -0.85373
H          3.03973       -2.04422       -0.20296
H         -1.09618       -1.70688        0.94547
H          0.57430       -2.13226        0.95025
C         -0.10158       -1.69634       -0.90829
C          1.37065       -1.64279       -1.31304
N         -0.15604       -1.51556        0.56774
N          2.15647       -2.51016       -0.43584
H          0.07738       -0.52300        0.81697
N          4.28017       -0.52238        0.32453
C          3.63112        0.01168        1.51489
H          2.65737        0.43546        1.25405
H          3.47801       -0.79207        2.24268
H          4.23457        0.80251        1.99783
C          5.56231       -1.12564        0.64904
H          5.42393       -1.92315        1.38598
H          6.00612       -1.56162       -0.25131
H          6.27807       -0.39193        1.06484
C          4.42972        0.51018       -0.69485
H          4.81893        0.06503       -1.61591
H          3.46155        0.97130       -0.90694
H          5.12827        1.30489       -0.37332
