31
2msa1tma_19.log	Energy: -943120.1502608
S         -2.05335       -1.24696       -0.06673
O         -0.72869       -1.11354        0.59346
O         -1.98652       -1.61213       -1.48557
O         -2.88511       -0.01379        0.19140
C         -2.92367       -2.55396        0.78379
H         -2.36139       -3.47761        0.64345
H         -2.99031       -2.29879        1.84135
H         -3.91649       -2.64252        0.34218
N         -1.31839        2.06659        0.03897
C         -0.31048        2.02022        1.12710
H         -0.81505        2.20072        2.07704
H          0.13362        1.02584        1.13865
H          0.45332        2.78004        0.94897
C         -0.69908        1.86698       -1.29576
H         -0.12986        0.93936       -1.28043
H         -1.49355        1.79938       -2.03947
H         -0.02759        2.70020       -1.51335
C         -2.14223        3.29180        0.08379
H         -2.89852        3.23737       -0.70000
H         -2.63325        3.35541        1.05546
H         -1.50661        4.16737       -0.07012
H         -1.98021        1.22595        0.17143
S          2.79751       -0.16745        0.04185
O          2.26215        0.84606       -0.84668
O          2.74393        0.02957        1.48260
O          4.37074       -0.35359       -0.34232
H          4.88334       -0.27203        0.47438
C          2.13803       -1.74677       -0.40659
H          1.06344       -1.70068       -0.18780
H          2.32111       -1.89819       -1.47033
H          2.63270       -2.50756        0.19682
