42
2msa2eda_318.log	Energy: -1072754.4178911
S          2.82926        0.40991        0.41138
O          2.02036        1.25612        1.32726
O          3.02354        0.99375       -0.92329
O          2.27892       -0.99202        0.34727
C          4.42611        0.22657        1.17805
H          4.86481        1.21978        1.27617
H          4.28690       -0.23286        2.15647
H          5.03941       -0.40377        0.53415
S         -0.51962       -2.58535       -0.42568
O         -1.36857       -3.34170       -1.32076
O         -1.16731       -1.57793        0.43618
O          0.60044       -1.88899       -1.27410
H          1.32369       -1.45664       -0.66688
C          0.38896       -3.67941        0.64291
H         -0.33314       -4.17617        1.29148
H          0.91131       -4.40272        0.01691
H          1.09144       -3.07721        1.22133
H          0.45343        0.87214       -1.62090
H         -1.29559        1.13864       -1.73751
H         -0.11296        3.10316       -2.57498
H         -0.98577        3.53640       -1.11386
H          1.05366        3.55757        0.08601
H          1.88901        2.92850       -1.15847
H         -0.72095        0.17433        0.35548
H          0.36574        1.37348        0.71674
C         -0.37831        1.46941       -1.24126
C         -0.13084        2.95978       -1.48899
N         -0.52285        1.17833        0.20929
N          1.08743        3.51148       -0.92649
H         -1.33693        1.71156        0.60971
H         -5.03195        2.09199        0.58296
H         -3.90446        2.38119       -0.75197
H         -4.72419        0.01969       -0.67446
H         -2.97719        0.12854       -0.55069
H         -4.77991       -0.69229        1.54044
H         -3.22881       -1.14265        1.21597
H         -3.08722        3.27876        1.36779
H         -3.09188        1.75390        1.98701
C         -4.02657        1.85811        0.20286
C         -3.90727        0.34885       -0.01840
N         -2.97687        2.29797        1.13191
N         -3.86690       -0.35521        1.26078
