35
2msa1ma1dma_335.log	Energy: -978610.7889159
S          1.03994       -1.48479       -0.04242
O          0.18836       -1.14387        1.12672
O          2.35531       -2.02511        0.34337
O          1.20477       -0.29073       -0.95863
H          2.43543        0.47602       -0.50341
C          0.16820       -2.70242       -0.99475
H          0.05399       -3.58507       -0.36482
H         -0.80290       -2.27852       -1.25636
H          0.76175       -2.93051       -1.87998
S         -3.06082       -0.06287        0.07211
O         -4.23433       -0.68054        0.66121
O         -2.38200       -0.74092       -1.02865
O         -1.99341        0.25059        1.21344
H         -1.17797       -0.33480        1.12854
C         -3.46829        1.59279       -0.42731
H         -4.20460        1.50729       -1.22746
H         -3.89912        2.10688        0.43227
H         -2.54997        2.07916       -0.76590
N         -0.21331        2.36389       -0.28995
H         -0.46976        2.33608        0.69010
C          0.76253        3.39130       -0.59294
H          1.70260        3.35096       -0.00583
H          1.02551        3.33635       -1.65376
H          0.33355        4.38251       -0.41826
H          0.09456        1.43352       -0.56471
N          3.28552        0.97498       -0.05072
C          4.51234        0.21198       -0.38273
C          3.00971        1.06368        1.40507
H          3.32750        1.91301       -0.44823
H          4.35478       -0.81405       -0.04767
H          4.65113        0.22460       -1.46394
H          5.37363        0.66166        0.11453
H          2.94042        0.04760        1.79517
H          3.81098        1.61479        1.90014
H          2.05057        1.56369        1.54537
