40
2msa1dma1eda_455.log	Energy: -1038010.5809909
S         -1.29178       -1.91939       -0.47744
O         -0.22576       -2.08532       -1.48715
O         -2.44179       -1.10722       -0.94228
O         -0.74641       -1.41943        0.82622
C         -1.93839       -3.54896       -0.13261
H         -2.35129       -3.94879       -1.05912
H         -1.12148       -4.17601        0.22530
H         -2.71529       -3.45830        0.62687
S          3.01280       -0.07530        0.39133
O          3.20760        0.68703       -0.82844
O          2.13451        0.45038        1.42826
O          4.47295       -0.26686        1.07869
H          4.40686        0.02049        2.00063
C          2.59272       -1.74435       -0.01375
H          1.63789       -1.73449       -0.55564
H          3.39196       -2.14280       -0.63906
H          2.49007       -2.30034        0.91769
N         -3.20443        1.28233        0.62205
C         -4.21160        2.27167        0.26446
C         -3.41542        0.69875        1.94480
H         -3.19899        0.51507       -0.05527
H         -4.14474        3.12895        0.94298
H         -4.03406        2.62762       -0.75392
H         -5.23715        1.87454        0.31999
H         -3.28959        1.46859        2.71445
H         -4.41916        0.26165        2.05941
H         -2.67356       -0.08853        2.10655
H          0.63072        0.66367       -1.36982
H         -1.07684        0.98108       -1.65377
H          0.40745        2.78619       -2.59058
H         -0.69233        3.42682       -1.36160
H          2.11607        2.72477       -0.84608
H          1.43677        4.22342       -0.77685
H         -0.38369        0.28594        0.66018
H          0.24131        1.85712        0.80710
C         -0.18918        1.34440       -1.13323
C          0.17326        2.77202       -1.51693
N         -0.44971        1.27324        0.32632
N          1.25656        3.23464       -0.65431
H         -1.45126        1.55697        0.52103
