38
2msa2dma_218.log	Energy: -1003270.2266804
S          2.80227       -1.31627        0.00384
O          3.31357       -0.08491        0.59621
O          2.44620       -1.29323       -1.40933
O          1.60091       -1.88273        0.86131
H          0.79405       -1.26633        0.79787
C          3.97393       -2.62128        0.29150
H          4.88394       -2.34687       -0.24279
H          4.16035       -2.69115        1.36264
H          3.55946       -3.54924       -0.10112
S         -1.26229        0.08540       -0.38789
O         -0.36778       -0.25437        0.75282
O         -2.21236        1.17907       -0.01794
O         -2.00707       -1.10819       -0.89938
H         -3.65086       -0.97129       -0.39152
C         -0.23888        0.68782       -1.70046
H          0.33636        1.53378       -1.30067
H          0.43873       -0.11719       -1.99198
H         -0.88958        0.98062       -2.52489
N          1.73166        2.58770        0.09842
C          0.93998        3.00960        1.24179
C          2.66887        3.60030       -0.35096
H          2.23925        1.73747        0.33029
H          0.28442        3.83823        0.94898
H          0.30763        2.18099        1.56960
H          1.55288        3.34898        2.09657
H          2.12002        4.47049       -0.73057
H          3.34964        3.95527        0.44396
H          3.27635        3.20174       -1.16828
N         -4.33860       -0.40103        0.16052
C         -4.46134       -0.97686        1.51572
C         -5.60952       -0.20463       -0.55824
H         -3.76878        0.48046        0.20768
H         -4.93046       -1.95966        1.45007
H         -3.46033       -1.07165        1.93796
H         -5.06559       -0.31561        2.13849
H         -6.10455       -1.16772       -0.69238
H         -6.25268        0.46269        0.01757
H         -5.39736        0.23861       -1.53112
