32
2msa2ma_95.log	Energy: -953962.6162140
S         -0.86904       -1.38486       -0.20177
O         -0.79382       -0.59110        1.05551
O         -0.21574       -0.66884       -1.34252
O         -2.26782       -1.76891       -0.53085
H         -3.29025       -0.44535        0.06948
C          0.04837       -2.88549        0.04443
H          1.08540       -2.60982        0.24521
H         -0.39701       -3.41661        0.88566
H         -0.02756       -3.47191       -0.87138
S          2.88949        0.29339        0.14562
O          4.14882        0.98140       -0.04824
O          2.84691       -1.16329        0.18779
O          1.90260        0.80854       -0.99113
H          1.13397        0.17299       -1.11904
C          2.12019        0.90574        1.63172
H          2.75850        0.61058        2.46570
H          2.06186        1.99229        1.56166
H          1.13084        0.44900        1.71422
N         -3.35378        0.49132        0.52405
H         -2.71297        0.39697        1.31815
C         -4.71734        0.90727        0.89070
H         -4.68554        1.88837        1.36543
H         -5.32537        0.96311       -0.01235
H         -5.15635        0.18313        1.57747
H         -2.85874        1.15815       -0.16839
N         -1.75725        1.94128       -1.17444
H         -1.27508        1.14046       -1.59081
C         -0.81176        2.66839       -0.31270
H          0.07765        3.01826       -0.84584
H         -1.31523        3.52542        0.14373
H         -0.48342        1.99026        0.47910
H         -2.07509        2.53206       -1.93634
