41
2msa1dma1tma_81.log	Energy: -1027942.8101722
S         -1.57564        0.36128       -1.37106
O         -0.51407        1.37210       -1.49328
O         -2.62033        0.64341       -0.37493
O         -0.98884       -1.02403       -1.12892
C         -2.36527        0.23509       -2.96491
H         -2.81682        1.20246       -3.18644
H         -1.60553       -0.01373       -3.70590
H         -3.12710       -0.54252       -2.91244
S          2.37527       -0.78572       -0.45239
O          3.63015       -1.50114       -0.34875
O          1.55308       -0.61661        0.74978
O          1.50250       -1.51293       -1.55570
H          0.52195       -1.28883       -1.43885
C          2.65761        0.82029       -1.15811
H          3.24410        1.39354       -0.43894
H          3.21125        0.68297       -2.08697
H          1.68466        1.28236       -1.33906
N          0.21467        2.42765        1.39136
C          1.58162        2.64583        1.82466
C         -0.50610        3.66270        1.13525
H          0.20442        1.87099        0.54124
H          1.58481        3.15040        2.79793
H          2.08476        1.68134        1.94021
H          2.17366        3.27184        1.12969
H         -0.65556        4.20496        2.07649
H          0.01765        4.33852        0.43550
H         -1.48596        3.42746        0.71276
N         -1.27025       -1.57468        1.55976
C         -2.68608       -2.00483        1.44183
H         -3.25217       -1.17635        1.01532
H         -2.73598       -2.86605        0.77474
H         -3.06119       -2.27039        2.43251
C         -0.38584       -2.67604        2.01310
H         -0.46058       -3.50055        1.30284
H          0.63744       -2.30383        2.03608
H         -0.70841       -3.00336        3.00401
C         -1.13917       -0.36273        2.41410
H         -0.10321       -0.03070        2.39825
H         -1.75839        0.42611        1.98891
H         -1.46024       -0.61560        3.42755
H         -0.97907       -1.30904        0.59072
