37
2msa1ma1eda_297.log	Energy: -1013358.9848797
S         -1.10089       -1.69461       -0.01698
O         -2.35046       -2.22032       -0.58476
O         -1.29924       -0.82154        1.17190
O         -0.28792       -0.96759       -1.06121
C         -0.10681       -3.07068        0.51692
H         -0.67631       -3.61881        1.26784
H          0.09059       -3.69982       -0.35153
H          0.81688       -2.67223        0.94092
S          2.86332       -0.14761        0.12346
O          2.45759       -0.99467        1.23716
O          2.70786        1.29870        0.28358
O          2.18342       -0.62738       -1.20821
H          1.16056       -0.78076       -1.10312
C          4.56206       -0.47775       -0.28308
H          4.67745       -1.54856       -0.44691
H          4.82153        0.08780       -1.17767
H          5.15863       -0.14917        0.56853
N         -3.95901        0.34472       -0.78189
H         -4.63396        0.61115       -1.49127
C         -4.61453        0.16288        0.52060
H         -5.42217       -0.57797        0.50046
H         -3.86341       -0.17694        1.23833
H         -5.02491        1.11682        0.86583
H         -3.55273       -0.55132       -1.06289
H         -1.98612        3.62633       -0.14353
H         -1.91196        2.88747        1.47178
H          0.13958        4.29195        0.98615
H          0.54592        2.59398        1.24773
H          0.73007        4.01776       -1.24853
H          1.54405        2.68152       -0.69866
H         -2.51051        1.30128       -0.48400
H         -0.87659        1.54738       -0.91454
C         -1.44261        2.91613        0.48604
C          0.04164        3.28438        0.56378
N         -1.54624        1.58188       -0.13411
N          0.63860        3.13765       -0.75818
H         -1.28744        0.81062        0.51758
