35
2msa1ma1dma_54.log	Energy: -978627.9859510
S         -1.71523       -1.55160        0.15858
O         -1.55917       -1.30301        1.59918
O         -0.44026       -1.31900       -0.60971
O         -2.81847       -0.79539       -0.48774
C         -2.10013       -3.27961       -0.04791
H         -1.28965       -3.86210        0.39067
H         -3.03936       -3.47688        0.46924
H         -2.19524       -3.48354       -1.11427
S          2.68018       -0.05924       -0.14498
O          2.46017        0.95610        0.88543
O          2.40748        0.32543       -1.52523
O          1.92175       -1.38447        0.22114
H          0.93056       -1.36904       -0.08046
C          4.35442       -0.63733       -0.00685
H          5.00164        0.21860       -0.20005
H          4.50610       -1.01686        1.00323
H          4.51050       -1.41806       -0.75052
N         -0.44504        1.54078        1.48475
H         -0.79632        0.64302        1.82594
C         -0.75719        2.61625        2.42893
H         -0.32314        2.45703        3.42316
H         -0.37709        3.56571        2.04091
H         -1.84146        2.70501        2.54172
H          0.56569        1.43220        1.38861
N         -1.58661        1.63950       -0.99068
C         -0.56958        1.71687       -2.05720
C         -2.59328        2.71285       -1.02246
H         -2.06989        0.71819       -1.01135
H         -0.02484        2.65838       -1.96331
H          0.12735        0.88651       -1.94305
H         -1.05701        1.66626       -3.03318
H         -2.10089        3.67679       -0.87823
H         -3.11392        2.70919       -1.98232
H         -3.31241        2.54369       -0.21989
H         -1.09574        1.64590       -0.01462
