37
2msa1ma1eda_500.log	Energy: -1013351.3397624
S          0.03960        1.88542        0.25949
O         -0.30362        0.91276       -0.83479
O          0.89168        1.30258        1.30228
O         -1.22553        2.49745        0.77726
H         -2.45880        1.52574        0.72987
C          0.95595        3.19406       -0.51811
H          1.85948        2.73496       -0.93555
H          0.33377        3.63251       -1.29852
H          1.19930        3.93261        0.24637
S          0.81094       -2.29387        0.09785
O          1.23603       -3.58481       -0.40467
O         -0.54107       -2.14824        0.63857
O          1.01194       -1.24699       -1.07539
H          0.47591       -0.38830       -0.93407
C          1.95704       -1.72936        1.33295
H          1.87223       -2.40673        2.18361
H          2.95862       -1.77580        0.90414
H          1.68349       -0.70673        1.60246
N          3.39816        0.96971       -1.17121
H          2.76897        0.17205       -1.20089
C          4.07582        1.04881        0.12151
H          4.67668        0.16266        0.38019
H          4.74172        1.91711        0.13020
H          3.32470        1.19717        0.90186
H          4.06667        0.84532       -1.92347
H         -4.77166        0.57672       -0.87831
H         -3.25890        1.34989       -1.43039
H         -3.42021       -1.18376       -1.92476
H         -1.98136       -0.65911       -1.03837
H         -4.15439       -2.23966        0.02260
H         -2.55070       -2.17574        0.43336
H         -4.10616        1.59758        1.05295
H         -3.35954        0.09529        1.16128
C         -3.68574        0.60682       -0.75560
C         -3.06328       -0.78011       -0.97116
N         -3.38888        1.00078        0.64936
N         -3.36680       -1.62362        0.18102
