30
2msa1eda_122.log	Energy: -953193.1508689
S          1.24090        1.87164        0.05706
O          2.00760        1.10075       -0.94411
O          1.98901        2.86724        0.82181
O          0.46085        0.91650        0.94766
C         -0.03335        2.74744       -0.84630
H          0.46029        3.42637       -1.54258
H         -0.64358        2.02020       -1.38418
H         -0.63242        3.31649       -0.13352
S         -2.55899       -0.57913       -0.04191
O         -2.08928       -0.16409       -1.35278
O         -1.93449       -1.72333        0.60935
O         -4.13929       -0.92126       -0.18449
H         -4.36147       -0.92658       -1.12702
C         -2.60998        0.77843        1.08967
H         -1.56004        1.03764        1.27919
H         -3.14746        1.59813        0.61332
H         -3.11429        0.44290        1.99592
H          1.32093       -2.95220       -1.04498
H          1.23216       -1.21939       -1.49297
H          3.60332       -2.07502       -1.51235
H          3.32347       -0.74134       -0.38934
H          3.72652       -3.55554        0.32932
H          4.36009       -2.21097        1.01332
H         -0.00870       -1.97945        0.60223
H          1.54048       -2.06643        1.27339
C          1.59854       -1.93398       -0.75593
C          3.10732       -1.79636       -0.57492
N          0.95483       -1.63470        0.54803
N          3.52832       -2.59346        0.58082
H          0.87762       -0.57751        0.72125
