32
2msa2ma_193.log	Energy: -953957.0070888
S          2.57246       -0.20314       -0.64265
O          3.56280        0.08260       -1.66937
O          1.18713        0.30638       -0.99011
O          2.92401        0.28911        0.72730
H          1.76680        1.13535        1.37584
C          2.40506       -1.97270       -0.49413
H          2.11498       -2.36794       -1.46844
H          3.37688       -2.36906       -0.19865
H          1.64842       -2.19367        0.26111
S         -1.34955       -0.93322        0.73327
O         -1.43778        0.44247        1.26494
O         -0.45795       -1.82897        1.46019
O         -0.97305       -0.88520       -0.78667
H         -0.03958       -0.42216       -0.91365
C         -2.98169       -1.60277        0.63545
H         -3.35411       -1.66774        1.65862
H         -3.59363       -0.92879        0.02105
H         -2.90366       -2.59540        0.19143
N          0.97137        1.77834        1.68889
H          0.08181        1.24546        1.60815
C          0.93407        2.96725        0.80469
H          0.11053        3.61966        1.09544
H          1.88455        3.49538        0.87713
H          0.79602        2.60528       -0.21380
H          1.11380        2.02953        2.66434
N         -4.40897        0.59344       -1.38478
H         -4.51872        0.15776       -2.29447
C         -3.35079        1.60655       -1.42690
H         -3.53483        2.42339       -2.13891
H         -3.22480        2.03332       -0.42861
H         -2.40731        1.12232       -1.68824
H         -5.30159        1.01557       -1.15182
