42
2msa2eda_149.log	Energy: -1072763.8476328
S          2.68883       -0.66077       -0.33639
O          2.50544       -2.12421       -0.48468
O          3.99652       -0.20355        0.12492
O          1.55440       -0.10224        0.51651
H          1.24173        1.45821        0.55088
C          2.40591        0.03560       -1.95977
H          3.12638       -0.41528       -2.64317
H          1.37848       -0.18268       -2.25958
H          2.56726        1.11396       -1.91272
S         -1.61387        0.71646       -1.36254
O         -0.85147        1.98725       -1.52709
O         -1.94354        0.45537        0.06589
O         -0.97510       -0.45054       -2.01154
H         -0.86561       -1.97896       -0.66780
C         -3.16736        0.97678       -2.19984
H         -3.67255        1.82202       -1.73225
H         -2.95652        1.18424       -3.24907
H         -3.75936        0.06619       -2.10188
H         -1.61359       -1.61149        2.36772
H         -2.27512       -3.23581        2.54237
H          0.10259       -3.30178        1.82070
H         -0.98526       -4.05289        0.62450
H          0.12740       -1.29466        0.45564
H          0.69105       -2.54689       -0.35610
H         -3.89285       -2.39429        1.22502
H         -2.92637       -1.25284        0.54085
C         -1.92331       -2.50597        1.80689
C         -0.71061       -3.11662        1.11455
N         -2.97457       -2.22666        0.83504
N         -0.18771       -2.20472        0.07238
H         -1.47369        2.70458        1.82555
H         -0.69493        2.98842        3.37944
H          0.46845        4.18888        1.56062
H          1.53143        3.01521        2.36387
H          0.14639        2.43891       -0.23970
H          1.72067        2.94928       -0.03463
H         -0.78588        0.58706        1.73179
H          0.39859        0.72277        2.88131
C         -0.57603        2.48450        2.41249
C          0.64213        3.12340        1.73591
N         -0.51897        1.04849        2.59696
N          0.95089        2.47633        0.43505
