40
2msa1dma1eda_161.log	Energy: -1038021.3035464
S         -0.39187        2.47258       -0.03917
O          0.04627        3.80606       -0.39259
O          0.64211        1.44016        0.15345
O         -1.40062        1.98618       -1.14096
C         -1.37146        2.52571        1.44123
H         -0.70793        2.82509        2.25357
H         -2.15682        3.26698        1.29243
H         -1.78884        1.52879        1.60732
S         -2.20310       -1.33275        0.04077
O         -2.47165       -0.49717        1.21915
O         -1.26272       -2.45876        0.27500
O         -1.74427       -0.52129       -1.14514
H         -1.57102        0.97398       -1.10278
C         -3.74772       -2.06921       -0.45874
H         -4.09680       -2.70026        0.35889
H         -4.45840       -1.26640       -0.65589
H         -3.57207       -2.66105       -1.35683
N          2.66439       -1.29650        1.81703
C          1.47785       -1.25084        2.67257
C          3.41361       -0.04138        1.82585
H          3.26821       -2.05632        2.11217
H          0.79291       -0.48363        2.29699
H          0.95418       -2.20902        2.63439
H          1.71280       -1.01186        3.72075
H          2.78716        0.74794        1.39868
H          3.71666        0.26730        2.83843
H          4.30068       -0.14564        1.19781
H          1.71632       -2.39605       -2.14553
H          0.43031       -1.21444       -2.47430
H          2.50502       -0.39950       -3.48951
H          2.06577        0.64404       -2.13362
H          4.21163       -1.34262       -2.12841
H          4.26586        0.23447       -1.69944
H          0.32581       -1.86020       -0.21090
H          1.93156       -1.40799        0.12087
C          1.37793       -1.37350       -1.95457
C          2.42177       -0.35774       -2.39414
N          1.10782       -1.24294       -0.50885
N          3.68280       -0.59374       -1.69413
H          0.79659       -0.27844       -0.30364
