34
2msa1a1eda_56.log	Energy: -988710.5737743
S          1.85266       -1.45021        0.11731
O          3.28218       -1.13541        0.15934
O          1.50986       -2.87744       -0.13803
O          1.09609       -0.58442       -0.86738
C          1.15113       -1.04569        1.70900
H          1.62349       -1.68602        2.45477
H          1.36286        0.00731        1.90326
H          0.07333       -1.21673        1.67063
S         -2.53120        0.23658        0.23551
O         -2.20632        0.52271       -1.19111
O         -1.80154        1.11605        1.17444
O         -2.38515       -1.21677        0.54925
C         -4.26563        0.59256        0.45491
H         -4.52252        0.37469        1.49171
H         -4.42816        1.64757        0.23348
H         -4.83851       -0.03781       -0.22520
N         -0.89380       -2.45160       -1.32382
H         -0.04337       -2.87567       -0.87543
H         -0.53558       -1.62328       -1.80803
H         -1.36491       -3.08691       -1.95934
H         -1.54664       -2.08172       -0.58207
H          1.70907        2.28483       -1.95695
H          0.76010        3.70357       -1.47755
H          3.08872        3.63693       -0.50592
H          1.80221        3.81007        0.69102
H          3.10424        1.21269        0.14197
H          3.21498        2.12471        1.49888
H         -0.63187        1.75322       -1.21182
H          0.59583        0.88456       -0.54778
C          1.23043        2.78785       -1.11234
C          2.25173        3.10937       -0.02243
N          0.19379        1.86337       -0.60785
N          2.62141        1.90909        0.70745
H         -0.18346        2.07791        0.32185
