43
2msa1eda1tma_169.log	Energy: -1062674.4121688
S         -1.10290       -2.12170       -0.76808
O         -1.79421       -1.97887        0.54893
O          0.28080       -2.59780       -0.64784
O         -1.22948       -0.87139       -1.58193
C         -2.02218       -3.35998       -1.66181
H         -1.96754       -4.29338       -1.10145
H         -3.05420       -3.02190       -1.75513
H         -1.56172       -3.47293       -2.64349
S         -1.52432        2.17815        0.07196
O         -0.25370        2.51522       -0.55309
O         -1.47738        1.65138        1.43872
O         -2.37839        1.23654       -0.84632
H         -1.89286        0.35999       -1.11040
C         -2.58235        3.60625        0.06695
H         -2.67400        3.96387       -0.95810
H         -3.55167        3.32131        0.47477
H         -2.10166        4.35502        0.69727
H          0.89669       -1.32197        3.95544
H          0.34306       -2.60747        2.84890
H          2.71671       -1.81558        2.35875
H          1.60626       -1.63889        0.99325
H          2.66644        0.52721        2.62354
H          2.36559        0.46061        0.98645
H         -1.13939       -0.48672        3.21695
H         -0.05809        0.20409        2.16341
C          0.65644       -1.56398        2.91632
C          1.84279       -1.26049        1.99313
N         -0.46549       -0.69462        2.48480
N          2.02697        0.18106        1.91799
H         -0.99751       -1.12999        1.68122
N          3.01780        0.68654       -0.84948
C          3.22456        2.11509       -1.03435
H          2.27425        2.63699       -0.90026
H          3.93888        2.48626       -0.29146
H          3.61998        2.34990       -2.04037
C          4.26352       -0.05082       -0.96792
H          4.98171        0.30518       -0.22148
H          4.07984       -1.11495       -0.79113
H          4.72377        0.05794       -1.96806
C          2.01079        0.17812       -1.77569
H          1.81848       -0.87964       -1.57992
H          1.07515        0.72130       -1.63314
H          2.33007        0.29386       -2.82828
