42
2msa2eda_165.log	Energy: -1072760.3527752
S          1.09176        1.43451        1.37679
O          1.59324        2.73799        1.79564
O          2.08184        0.32766        1.36936
O          0.39307        1.48686        0.02363
H          1.16833        0.24438       -0.93014
C         -0.18802        0.94192        2.52483
H          0.28266        0.79322        3.49721
H         -0.91636        1.75207        2.58976
H         -0.65708        0.01684        2.17848
S         -1.20370       -2.61321        0.15101
O         -1.86321       -3.89301       -0.07281
O         -2.00098       -1.63082        0.96112
O         -0.71826       -1.93923       -1.10047
H         -2.29895        0.47561       -1.42636
C          0.26009       -2.92698        1.13355
H         -0.05845       -3.39672        2.06458
H          0.90560       -3.60774        0.57617
H          0.77019       -1.98331        1.34408
H         -2.00834        3.30761       -0.73544
H         -3.72217        3.64634       -0.46479
H         -2.88740        1.88129        1.08954
H         -4.11933        1.21434        0.00753
H         -1.17585        0.96630       -0.28819
H         -2.22317       -0.28773        0.09217
H         -4.21138        2.43560       -2.45402
H         -2.80926        3.16980       -2.86765
C         -3.01575        2.89040       -0.83282
C         -3.11705        1.64972        0.04770
N         -3.22514        2.50504       -2.22727
N         -2.15824        0.63329       -0.42603
H          2.97259       -1.37358       -2.66998
H          2.02847        0.04528       -3.19524
H          4.43810        0.59312       -2.64724
H          3.28781        1.50340       -1.66391
H          5.29891        0.04054       -0.63636
H          3.89350        0.27078        0.19231
H          0.83488       -1.30474       -1.42266
H          2.13923       -0.95858       -0.42802
C          2.57140       -0.40601       -2.36157
C          3.69366        0.49903       -1.85172
N          1.62061       -0.63891       -1.25431
N          4.29804       -0.09789       -0.66644
