32
2msa2ma_119.log	Energy: -953958.5623898
S         -2.69774       -0.82515       -0.15172
O         -4.07137       -1.21551        0.15632
O         -1.99934       -0.05330        0.91441
O         -2.56007       -0.09266       -1.46666
H         -1.80628        1.19596       -1.24152
C         -1.75207       -2.32678       -0.37096
H         -1.83325       -2.90795        0.54887
H         -2.18403       -2.87890       -1.20620
H         -0.71381       -2.05666       -0.57107
S          1.58319        0.21458        0.72531
O          1.41998       -0.83133       -0.28883
O          1.11485        1.55933        0.35979
O          3.08676        0.29417        1.13149
H          3.71233       -0.25568        0.40121
C          0.77947       -0.26701        2.22672
H         -0.29126       -0.32011        1.99808
H          1.17864       -1.23606        2.52617
H          0.99113        0.49301        2.97909
N          4.40685       -0.94630       -0.61562
H          5.35601       -1.20787       -0.36530
C          4.37848       -0.13073       -1.84297
H          4.84374       -0.63640       -2.69373
H          3.33534        0.08520       -2.07996
H          4.89582        0.81172       -1.65534
H          3.86987       -1.80007       -0.75156
N         -1.29866        2.11953       -0.97467
H         -0.42689        1.85562       -0.48235
C         -2.16973        2.92423       -0.08879
H         -1.65239        3.83337        0.21990
H         -3.08854        3.17150       -0.62088
H         -2.40671        2.30254        0.77457
H         -1.04769        2.62345       -1.82147
