32
2msa1a1dma_17.log	Energy: -953972.4599550
S         -2.42436       -0.26989       -0.03157
O         -1.82921        0.72073       -0.92670
O         -2.62756        0.14307        1.35613
O         -1.64572       -1.62552       -0.10560
H         -0.66136       -1.55299        0.23361
C         -3.97952       -0.80429       -0.70405
H         -3.81018       -1.17256       -1.71532
H         -4.37966       -1.58644       -0.05969
H         -4.63780        0.06494       -0.71127
S          1.88843       -1.15787       -0.05582
O          2.93492       -0.51728        0.75122
O          1.50158       -0.40006       -1.27167
O          0.67989       -1.48978        0.78592
H          0.50762        0.29550        2.10320
C          2.51544       -2.72723       -0.62325
H          3.39936       -2.53496       -1.23164
H          2.77206       -3.32433        0.25200
H          1.73903       -3.21488       -1.21303
N          0.10152        1.23156        2.14434
H         -0.90834        1.09541        2.18954
H          0.53590        1.88405        0.61058
H          0.40844        1.66662        3.00784
N          0.93188        2.15754       -0.34472
C          2.33512        2.57875       -0.14437
C          0.07762        3.17167       -0.99041
H          0.93895        1.26689       -0.88237
H          2.35315        3.46253        0.49675
H          2.87407        1.75328        0.32426
H          2.78564        2.81139       -1.11085
H          0.05765        4.06873       -0.36799
H          0.48719        3.41725       -1.97216
H         -0.92390        2.75738       -1.09428
