35
2msa1ma1dma_326.log	Energy: -978611.9110095
S          2.37382       -1.42700        0.20872
O          2.84596       -2.72521        0.65266
O          2.09955       -0.39228        1.20474
O          1.06044       -1.64768       -0.66469
H          0.31261       -1.05552       -0.35573
C          3.49900       -0.78034       -1.00188
H          4.45498       -0.63654       -0.49567
H          3.59753       -1.52250       -1.79461
H          3.09876        0.17174       -1.37577
S         -1.27854        1.08902        0.45322
O         -0.70471        2.04462       -0.49478
O         -1.06050       -0.34753        0.07756
O         -2.75486        1.28447        0.68423
H         -3.53707        0.16349        0.05051
C         -0.49944        1.33328        2.03221
H          0.55648        1.08375        1.91521
H         -0.64127        2.37668        2.31438
H         -0.96888        0.66431        2.75328
N          2.20499        2.19849       -1.45540
H          2.32366        2.86900       -2.20723
C          2.78665        2.71329       -0.21594
H          2.32821        3.64451        0.14834
H          2.68382        1.95260        0.56358
H          3.85703        2.89351       -0.35963
H          1.20272        2.07299       -1.32707
N         -4.04462       -0.67327       -0.42605
C         -3.78338       -1.89100        0.37953
C         -3.55664       -0.76811       -1.82442
H         -5.04072       -0.45926       -0.42200
H         -2.70182       -2.01338        0.44196
H         -4.19269       -1.74309        1.37909
H         -4.24847       -2.75690       -0.09502
H         -2.48106       -0.94047       -1.78370
H         -4.06345       -1.58689       -2.33820
H         -3.75158        0.17935       -2.32716
