37
2msa1ma1eda_211.log	Energy: -1013361.2915731
S         -0.48791        2.37062       -0.12800
O         -0.57580        3.79492        0.15448
O         -1.29515        1.52670        0.84279
O          0.89884        1.81995       -0.19155
H          1.07254        0.56225        0.94899
C         -1.20679        2.06700       -1.73321
H         -2.24335        2.40547       -1.71010
H         -0.63556        2.64597       -2.45953
H         -1.14515        0.99867       -1.95001
S         -1.82518       -1.60349       -0.11611
O         -0.98462       -1.98919        1.02884
O         -1.12432       -1.38414       -1.37723
O         -2.71284       -0.37923        0.25377
H         -2.11333        0.47879        0.49163
C         -3.07158       -2.84825       -0.33093
H         -2.55743       -3.76857       -0.60908
H         -3.60233       -2.96915        0.61276
H         -3.74464       -2.52495       -1.12445
N          1.15634       -0.20259        1.65673
H          0.37722       -0.85755        1.48618
C          1.08256        0.36991        3.01467
H          1.14457       -0.42769        3.75552
H          1.90749        1.06927        3.15218
H          0.13651        0.90245        3.11413
H          2.05748       -0.70912        1.44784
H          3.96806       -2.35633       -1.21974
H          2.42502       -2.83248       -0.48430
H          2.17194       -1.31739       -2.47726
H          1.39685       -0.70817       -1.03636
H          3.66465        0.44165       -2.36959
H          2.55858        1.13109       -1.35560
H          4.10401       -2.05348        1.14579
H          4.04214       -0.57444        0.42078
C          3.09877       -1.98652       -0.65634
C          2.37603       -0.91346       -1.47763
N          3.50244       -1.41382        0.63754
N          3.15569        0.32291       -1.50313
