37
2msa1ma1eda_206.log	Energy: -1013362.4329061
S          0.53101        2.16382       -0.35482
O          1.25216        1.77866        0.87671
O         -0.86911        2.56699       -0.15022
O          0.62158        1.07391       -1.40541
C          1.40072        3.55193       -1.05819
H          1.35956        4.36866       -0.33713
H          2.43280        3.25367       -1.24339
H          0.90381        3.82987       -1.98749
S          1.98946       -1.81692        0.01277
O          2.59870       -3.10551       -0.24723
O          0.56607       -1.76081        0.35588
O          2.25183       -0.90673       -1.25245
H          1.63138       -0.10364       -1.27809
C          2.88987       -0.98303        1.30012
H          2.74028       -1.55019        2.21989
H          3.94403       -0.97506        1.02276
H          2.49057        0.03047        1.38465
N         -1.08663        0.08783        1.98911
H         -0.90754       -0.79364        2.45924
C         -1.93846        0.97849        2.77998
H         -1.53341        1.20094        3.77474
H         -2.05030        1.91755        2.23296
H         -2.92892        0.52951        2.90347
H         -0.17935        0.52729        1.82443
H         -2.29856       -1.63741       -2.09671
H         -1.49155       -2.25954       -0.64211
H         -3.91812       -2.84194       -0.60440
H         -3.52004       -1.72778        0.70715
H         -4.89660       -0.99414       -1.77181
H         -5.35353       -0.71156       -0.22703
H         -0.93917        0.10315       -1.13735
H         -2.53819        0.47912       -0.85188
C         -2.24455       -1.55918       -1.00638
C         -3.61056       -1.81138       -0.38113
N         -1.79924       -0.19820       -0.65047
N         -4.55131       -0.79031       -0.83986
H         -1.56645       -0.12398        0.40489
