40
2msa1dma1eda_315.log	Energy: -1038017.3475698
S         -0.03760        2.45561       -0.24837
O         -1.08433        2.48295       -1.27391
O          1.23951        1.83390       -0.75090
O         -0.46068        1.81425        1.02877
C          0.38053        4.14122        0.15348
H         -0.51965        4.63187        0.52409
H          1.15843        4.13166        0.91690
H          0.73583        4.62394       -0.75702
S          2.76583       -1.09835        0.27688
O          2.68444       -1.36113       -1.15394
O          1.75853       -1.76138        1.11813
O          2.79687        0.43367        0.57491
H          2.11030        1.01340        0.02181
C          4.36768       -1.56195        0.88682
H          4.45901       -2.63993        0.75164
H          5.12090       -1.03280        0.30394
H          4.42666       -1.29743        1.94213
N         -3.49153       -0.50172        1.19816
C         -4.45620       -1.56713        1.44353
C         -3.87005        0.36703        0.08423
H         -3.38364        0.06638        2.03313
H         -4.43781       -2.25874        0.59598
H         -4.16782       -2.12586        2.33764
H         -5.48461       -1.19534        1.57563
H         -3.91740       -0.23301       -0.83065
H         -4.85237        0.84267        0.22627
H         -3.11488        1.14592       -0.05746
H         -1.42378       -0.21718       -1.54215
H          0.29627       -0.57584       -1.40602
H         -0.72675       -2.37240       -2.67729
H         -0.19883       -2.99800       -1.11800
H         -2.96787       -2.39854       -1.86121
H         -2.35077       -3.80151       -1.30339
H         -0.64264        0.13908        0.68213
H         -1.79293       -1.05578        0.67923
C         -0.69961       -0.91865       -1.12000
C         -0.93092       -2.34036       -1.59837
N         -0.81895       -0.83881        0.35829
N         -2.27449       -2.79337       -1.23347
H         -0.10586       -1.43042        0.80309
