29
2msa1a1ma_57.log	Energy: -929301.5364266
S         -2.63897       -0.69372       -0.04160
O         -1.83293       -0.20895        1.10940
O         -2.01842       -1.79066       -0.79489
O         -3.04893        0.46806       -0.91129
H         -1.95059        1.54766       -0.82645
C         -4.17367       -1.31797        0.62558
H         -4.66412       -0.51702        1.17892
H         -4.79483       -1.65024       -0.20645
H         -3.93636       -2.15367        1.28455
S          2.09099       -0.01437       -0.01440
O          1.36027        1.06828       -0.68072
O          2.78275        0.30956        1.23144
O          3.14002       -0.57949       -1.04899
H          4.08568       -0.60243       -0.62748
C          0.99106       -1.37426        0.23730
H          0.19998       -1.03834        0.91401
H          0.53717       -1.64726       -0.71605
H          1.56680       -2.19727        0.66060
N          5.45982       -0.54010        0.16950
H          5.92246       -1.42533        0.34831
H          5.13293       -0.15907        1.05555
H          6.14180        0.10121       -0.22229
N         -1.15565        2.25543       -0.64807
H         -0.26176        1.73236       -0.67096
C         -1.33584        2.88835        0.67865
H         -0.49051        3.54173        0.89616
H         -2.26609        3.45679        0.67980
H         -1.39900        2.08196        1.40930
H         -1.13636        2.93998       -1.40021
