22
2msa1a_21.log	Energy: -869134.2132166
S         -1.70266       -0.52393        0.17153
O         -1.11455       -1.11695        1.35913
O         -1.38781        0.87609       -0.13512
O         -3.27618       -0.67318        0.24014
H         -3.73434        0.23248        0.05204
C         -1.28536       -1.52720       -1.23232
H         -0.19999       -1.47855       -1.33925
H         -1.61739       -2.54551       -1.03039
H         -1.78297       -1.11683       -2.11073
S          2.60420        0.24489       -0.17132
O          1.86099       -0.69262       -0.98816
O          3.24609        1.40147       -0.77521
O          3.77774       -0.59758        0.58189
H          4.62141       -0.17059        0.37595
C          1.61238        0.73556        1.21265
H          0.75838        1.28205        0.80674
H          1.25474       -0.16205        1.71812
H          2.22054        1.36165        1.86457
N         -4.26060        1.71886       -0.23123
H         -3.36892        2.19220       -0.36528
H         -4.73325        2.14732        0.55809
H         -4.83104        1.86237       -1.05800
