42
2msa2eda_162.log	Energy: -1072758.9985282
S          2.69659       -0.21041        0.20055
O          2.33981        1.18822       -0.24205
O          2.66741       -1.17264       -0.91483
O          1.90563       -0.62695        1.38004
H          0.12060       -0.95700        1.02453
C          4.38840       -0.06626        0.73928
H          4.98925        0.25544       -0.11127
H          4.42965        0.66616        1.54521
H          4.70937       -1.04714        1.09061
S         -0.92884        2.16454       -0.18653
O         -0.94020        1.39203        1.05599
O         -2.18950        2.30942       -0.90314
O          0.10227        1.56439       -1.19589
H          1.06013        1.37955       -0.77511
C         -0.26230        3.77342        0.17799
H         -0.93950        4.25838        0.88163
H          0.72437        3.63348        0.62192
H         -0.20024        4.33479       -0.75393
H         -0.21829       -0.51998       -2.43196
H         -0.37651       -1.71295       -3.71925
H         -2.58578       -1.13865       -3.35194
H         -2.43733       -2.58996       -2.35960
H         -2.52173        0.18024       -1.40511
H         -3.45468       -1.07651       -0.95857
H          0.08296       -3.41150       -2.17433
H          1.10154       -2.20636       -1.70133
C         -0.58861       -1.52463       -2.65753
C         -2.10584       -1.54883       -2.45212
N          0.11923       -2.47481       -1.78558
N         -2.51256       -0.82517       -1.23982
H         -1.91526       -3.02664        1.60740
H         -0.32499       -2.85278        2.39989
H         -2.14584       -1.91881        3.79185
H         -0.99274       -0.66469        3.31741
H         -3.56263       -0.32334        3.02789
H         -2.55834        0.21538        1.85721
H         -0.29002       -2.20517       -0.00101
H         -1.41361       -1.08558        0.25584
C         -1.16125       -2.31276        1.94834
C         -1.77903       -1.33581        2.94137
N         -0.65311       -1.59205        0.76611
N         -2.89583       -0.62212        2.32683
