32
2msa2ma_17.log	Energy: -953975.7923691
S         -2.51904       -0.02271       -0.26722
O         -3.84977       -0.61722       -0.32106
O         -1.56709       -0.73078        0.66481
O         -2.48364        1.43709        0.05425
H         -1.13416        1.70289        0.87535
C         -1.78493       -0.17020       -1.89069
H         -1.76724       -1.22585       -2.16775
H         -2.41416        0.38484       -2.58743
H         -0.77554        0.24728       -1.85976
S          2.11919        0.08915       -0.47071
O          1.83958        0.13591        0.99973
O          1.33013        1.08518       -1.21595
O          2.00749       -1.29997       -1.00223
H          0.86971       -2.24992       -0.26180
C          3.83893        0.52259       -0.66607
H          4.44192       -0.19422       -0.10873
H          4.07533        0.48217       -1.72949
H          3.98285        1.53132       -0.27822
N         -0.25429        1.91979        1.43186
H         -0.51268        1.91895        2.41575
C          0.31748        3.21433        1.00328
H          1.19721        3.44678        1.60446
H          0.60467        3.10896       -0.04247
H         -0.43435        3.99594        1.11316
H          0.43717        1.15293        1.27773
N          0.14551       -2.67310        0.37335
H         -0.63775       -1.95064        0.43169
C          0.72989       -2.88570        1.71643
H         -0.05262       -3.19395        2.40982
H          1.50970       -3.64603        1.66347
H          1.16376       -1.93604        2.03074
H         -0.21655       -3.53310       -0.03030
