29
2msa1a1ma_78.log	Energy: -929300.3452191
S          2.46260        0.01307       -0.21430
O          2.33033        1.04501       -1.22966
O          2.16213       -1.37027       -0.56502
O          1.64108        0.41540        1.08100
H          0.71767       -0.01803        1.09163
C          4.10737        0.09773        0.46043
H          4.79588       -0.11931       -0.35690
H          4.27258        1.10443        0.84352
H          4.19753       -0.64578        1.25151
S         -1.49955       -1.12599        0.10405
O         -0.72295       -0.51717        1.24015
O         -1.28761       -0.38963       -1.16291
O         -2.93808       -1.24522        0.45767
H         -3.68870        0.31637       -0.19141
C         -0.84181       -2.76286       -0.10619
H          0.21657       -2.65126       -0.35000
H         -0.98021       -3.30422        0.82978
H         -1.38534       -3.24299       -0.91999
N         -3.49560        1.19834       -0.70658
H         -2.92754        0.89308       -1.50356
H         -2.81530        1.79715       -0.05994
H         -4.34008        1.68303       -0.99241
N         -1.59129        2.34130        0.79189
H         -1.76306        3.05649        1.49213
C         -0.52123        2.76132       -0.13338
H          0.42101        2.97704        0.37760
H         -0.33514        1.95318       -0.84406
H         -0.84320        3.65109       -0.68158
H         -1.28858        1.49693        1.28554
