28
2msa1dma_96.log	Energy: -918445.3030725
S          2.26177       -0.56939       -0.07779
O          1.22733       -0.99744       -1.01123
O          3.07009        0.59655       -0.39366
O          3.28465       -1.81921        0.08595
H          4.13378       -1.56100       -0.30149
C          1.59639       -0.48703        1.55768
H          0.83100        0.29088        1.51393
H          1.14028       -1.44900        1.78800
H          2.40926       -0.23919        2.23962
S         -2.24523       -0.55592        0.11009
O         -2.86843        0.75031        0.21327
O         -1.39720       -1.03148        1.19531
O         -1.43497       -0.64821       -1.26117
H         -0.46047       -0.69591       -1.09859
C         -3.51288       -1.75936       -0.21738
H         -4.18342       -1.75717        0.64260
H         -4.04599       -1.45868       -1.11916
H         -3.04245       -2.73378       -0.34390
N          0.39131        2.15790        0.04754
C         -0.34987        2.94793        1.02325
C         -0.06503        2.39121       -1.31795
H          1.37900        2.39027        0.09818
H         -1.39347        2.62127        1.02571
H          0.06122        2.78035        2.02408
H         -0.32425        4.03171        0.81715
H         -1.10882        2.07876       -1.40783
H          0.00363        3.44995       -1.62087
H          0.53343        1.79062       -2.00834
