42
2msa2eda_425.log	Energy: -1072752.4382493
S         -2.06968       -1.24205       -0.87650
O         -3.26352       -2.03551       -1.16244
O         -1.65301       -1.23015        0.55159
O         -2.16059        0.17674       -1.39657
H         -2.48302        1.27531       -0.44807
C         -0.71133       -1.94624       -1.79703
H         -0.56253       -2.96573       -1.43634
H         -0.98854       -1.95728       -2.85163
H          0.18138       -1.33526       -1.64260
S          2.06980        1.24208       -0.87637
O          3.26368        2.03562       -1.16188
O          1.65263        1.23014        0.55158
O          2.16103       -0.17672       -1.39636
H          2.48312       -1.27536       -0.44790
C          0.71171        1.94612       -1.79741
H         -0.18108        1.33524       -1.64304
H          0.56289        2.96572       -1.43704
H          0.98917        1.95685       -2.85195
H         -3.23376        2.38462        2.24564
H         -3.14267        0.67356        1.72001
H         -1.12671        1.40055        3.10975
H         -0.75119        0.76395        1.50364
H         -0.48773        3.52483        2.34576
H          0.41523        2.60184        1.30655
H         -3.61625        2.49288       -0.05020
H         -1.97375        2.81764        0.15675
C         -2.68033        1.65887        1.64261
C         -1.20250        1.60421        2.03510
N         -2.71916        2.10198        0.22423
N         -0.53215        2.83028        1.60956
H          3.23341       -2.38456        2.24595
H          3.14238       -0.67353        1.72020
H          1.12622       -1.40035        3.10964
H          0.75095       -0.76399        1.50336
H          0.48752       -3.52482        2.34576
H         -0.41546       -2.60190        1.30654
H          3.61624       -2.49299       -0.04982
H          1.97371       -2.81769        0.15686
C          2.68007       -1.65886        1.64279
C          1.20219       -1.60417        2.03503
N          2.71912       -2.10204        0.22443
N          0.53192       -2.83030        1.60953
