40
2msa1dma1eda_101.log	Energy: -1038028.0767958
S          3.02484        0.17349       -0.06444
O          3.39492       -1.24572        0.09692
O          2.46260        0.77152        1.19546
O          2.12969        0.44841       -1.21243
H         -0.42880        0.82520        0.02396
C          4.55014        1.05390       -0.36797
H          5.21098        0.89547        0.48453
H          4.99533        0.65037       -1.27786
H          4.32383        2.11354       -0.48892
S         -2.62274       -0.73166       -0.01189
O         -1.47581       -0.31070       -0.86917
O         -2.87211        0.21327        1.09262
O         -2.46102       -2.15106        0.42338
H         -0.91644       -2.68365        0.19282
C         -4.07003       -0.71567       -1.05423
H         -4.21420        0.29989       -1.42430
H         -3.90700       -1.40676       -1.88119
H         -4.92245       -1.02959       -0.45130
N          0.11259       -2.92186        0.20874
C          0.70024       -2.22081        1.38165
C          0.74245       -2.56713       -1.09499
H          0.18382       -3.92755        0.35477
H          0.52606       -1.15403        1.25719
H          0.19705       -2.57365        2.28180
H          1.77664       -2.38602        1.41199
H          0.57422       -1.50691       -1.27896
H          1.81476       -2.75087       -1.03520
H          0.26755       -3.16382       -1.87458
H          0.40333        3.63939        0.32908
H          0.52672        2.64176       -1.14827
H         -1.54324        4.15759       -1.04876
H         -1.90412        2.44490       -1.28610
H         -2.96880        3.96087        0.69023
H         -2.78444        2.32794        0.83457
H          0.95696        1.34724        0.86163
H         -0.61981        1.74274        1.39474
C         -0.06249        2.83925       -0.25066
C         -1.51911        3.17740       -0.56422
N         -0.02430        1.60933        0.57313
N         -2.29614        3.20674        0.67349
