38
2msa1ma1tma_23.log	Energy: -1003286.3398811
S         -1.96995       -1.42695        0.00217
O         -2.80177       -0.27794       -0.40057
O         -1.71138       -1.53806        1.44750
O         -0.68865       -1.45961       -0.80406
C         -2.84876       -2.90031       -0.48649
H         -3.79853       -2.91353        0.04877
H         -3.01336       -2.86107       -1.56331
H         -2.24283       -3.76556       -0.21692
S          2.55800       -0.53631       -0.01542
O          2.64240        0.12890        1.28449
O          2.25225        0.32106       -1.16387
O          1.59381       -1.75475        0.04227
H          0.58966       -1.59163       -0.28383
C          4.10297       -1.36459       -0.30962
H          4.27089       -2.07361        0.50071
H          4.04167       -1.87359       -1.27095
H          4.87945       -0.59947       -0.32122
N         -0.21367        1.00954        1.68319
H         -0.65934        0.09425        1.78534
C         -0.74628        1.92206        2.69796
H         -0.55642        1.58641        3.72445
H         -0.29952        2.91568        2.58157
H         -1.82806        2.01566        2.56846
H          0.78577        0.85909        1.81982
N         -0.62624        2.16046       -0.76925
C          0.51136        3.10613       -0.71287
H          0.52133        3.58815        0.26613
H          1.43274        2.53931       -0.85406
H          0.39936        3.85941       -1.49690
C         -0.63321        1.40201       -2.04670
H          0.29384        0.83537       -2.11563
H         -1.48143        0.72067       -2.03505
H         -0.71437        2.12002       -2.86836
C         -1.92831        2.82669       -0.53625
H         -2.69262        2.05041       -0.47786
H         -1.88119        3.37494        0.40596
H         -2.13536        3.51826       -1.35712
H         -0.48114        1.51439        0.09201
