42
2msa2eda_115.log	Energy: -1072767.6079519
S         -2.23977       -1.25427       -0.04061
O         -3.32878       -0.26857        0.08720
O         -0.96934       -0.75628        0.61682
O         -1.95744       -1.71925       -1.41407
C         -2.69658       -2.68612        0.91936
H         -2.91995       -2.35797        1.93470
H         -3.57509       -3.13758        0.45761
H         -1.84948       -3.37428        0.91748
S          2.56100        1.27849       -0.03856
O          2.71082        0.61532       -1.36814
O          1.87769        0.39234        0.93281
O          1.92803        2.62106       -0.12558
C          4.21845        1.55775        0.55834
H          4.71864        0.59273        0.64320
H          4.73534        2.19810       -0.15655
H          4.14937        2.04356        1.53173
H          0.76398       -3.55076       -1.12359
H          2.28716       -2.94690       -1.83489
H          2.76200       -3.79081        0.36890
H          2.90120       -2.02376        0.43533
H          1.59722       -3.14899        2.26103
H          0.75263       -1.97794        1.50717
H          0.24251       -1.50262       -2.05054
H          0.32982       -1.18348       -0.46145
C          1.54617       -2.79246       -1.04697
C          2.19123       -2.85750        0.33053
N          0.91227       -1.46805       -1.27993
N          1.17353       -2.89593        1.37552
H          1.62218       -0.71228       -1.42886
H         -2.33404        1.64175        1.50663
H         -1.38460        3.10704        1.86257
H         -3.68599        3.49627        0.77058
H         -2.33353        4.25610       -0.08436
H         -3.47470        1.64904       -0.85679
H         -3.52243        3.06315       -1.73081
H         -0.55656        0.94937        0.47316
H         -1.10635        1.94351       -0.74289
C         -1.81404        2.49571        1.06827
C         -2.77960        3.29214        0.18463
N         -0.72766        1.94317        0.21986
N         -3.00451        2.53559       -1.04056
H          0.18400        2.44170        0.22607
