40
2msa1dma1eda_197.log	Energy: -1038021.7256846
S         -0.05519        2.45488        0.02166
O         -0.09397        1.95605        1.41880
O         -1.36789        2.50555       -0.63790
O          0.94952        1.68332       -0.79702
C          0.57671        4.12043        0.09921
H         -0.12098        4.71875        0.68548
H          1.55580        4.09218        0.57774
H          0.65346        4.50297       -0.91871
S          2.35781       -1.20765        0.25990
O          2.19381       -1.66437       -1.11820
O          1.26002       -1.50493        1.17993
O          2.72354        0.31360        0.29742
H          1.97947        0.90694       -0.13660
C          3.86166       -1.87944        0.92599
H          3.73014       -2.96054        0.97801
H          4.68026       -1.61873        0.25601
H          4.01427       -1.45934        1.91968
N         -0.77951       -1.01044       -1.66101
C         -1.62969       -0.21632       -2.54601
C         -0.85234       -2.44439       -1.92285
H          0.18811       -0.71116       -1.76631
H         -2.68109       -0.47145       -2.36672
H         -1.49104        0.84307       -2.32232
H         -1.41609       -0.40195       -3.60908
H         -1.86063       -2.80830       -1.69070
H         -0.63578       -2.69276       -2.97208
H         -0.13310       -2.96229       -1.28588
H         -2.98117        0.33602        2.03240
H         -2.86677        0.78333        0.32300
H         -4.71879       -0.85809        0.67078
H         -3.44455       -1.55579       -0.33197
H         -3.88620       -2.16597        2.49796
H         -3.76793       -3.20004        1.23644
H         -1.22844       -1.33920        1.54158
H         -1.07882       -0.71036       -0.03049
C         -2.76673       -0.04432        1.02929
C         -3.67868       -1.21219        0.68133
N         -1.35936       -0.49043        0.98955
N         -3.43080       -2.31894        1.60436
H         -0.73016        0.25943        1.33051
