40
2msa1dma1eda_46.log	Energy: -1038036.7583328
S          2.89031        0.33038        0.01201
O          3.28889       -0.80737        0.85602
O          2.47202        1.55427        0.71531
O          1.82014       -0.09712       -0.98065
C          4.30332        0.75596       -0.99286
H          5.10035        1.07609       -0.32123
H          4.60618       -0.12712       -1.55553
H          4.02061        1.56582       -1.66559
S         -2.61668       -0.82392       -0.31468
O         -2.56388        0.03529       -1.52045
O         -1.97271       -0.16112        0.86272
O         -2.07764       -2.19274       -0.53186
C         -4.33665       -1.03413        0.09913
H         -4.76983       -0.04837        0.26957
H         -4.82486       -1.52926       -0.74040
H         -4.39865       -1.64568        0.99927
N          0.57853       -2.30422        0.19225
C          0.51885       -2.12893        1.66419
C          1.39865       -3.45489       -0.23819
H         -0.39942       -2.37343       -0.16774
H          1.52113       -1.89758        2.02541
H         -0.17152       -1.31158        1.87511
H          0.13863       -3.04985        2.10975
H          2.42031       -3.29475        0.10907
H          0.98686       -4.37100        0.18799
H          1.38060       -3.51240       -1.32666
H          0.99551       -1.44892       -0.23819
H          0.62881        3.13526        0.23292
H          0.01114        3.47889       -1.39813
H         -1.38414        4.64612        0.26732
H         -2.33503        3.42237       -0.55985
H         -2.20704        2.03033        1.36887
H         -1.21150        3.10002        2.14021
H          0.54325        1.07361       -0.93251
H         -0.67532        1.06769        0.18476
C         -0.22079        3.00346       -0.44129
C         -1.51632        3.56479        0.15510
N         -0.34996        1.54607       -0.67142
N         -1.92707        3.00542        1.42864
H         -1.08170        1.29209       -1.35314
