37
2msa1ma1eda_126.log	Energy: -1013362.5077617
S         -0.76536       -2.01675        0.35697
O          0.10479       -2.54885       -0.69726
O         -2.00655       -1.35594       -0.12344
O         -0.02578       -1.09733        1.30008
C         -1.29164       -3.38891        1.36562
H         -1.92123       -3.00716        2.16924
H         -1.85387       -4.07172        0.72825
H         -0.40221       -3.87662        1.76460
S          2.48578        0.45690       -0.65796
O          3.63924        1.33036       -0.63776
O          1.23896        0.96397       -1.25067
O          2.20249        0.02490        0.83569
H          1.32241       -0.48373        0.95002
C          2.87938       -1.07024       -1.47203
H          3.07830       -0.83183       -2.51758
H          3.76696       -1.48467       -0.99402
H          2.01721       -1.73572       -1.37494
N         -0.19725        1.68706        2.46876
H         -0.29735        0.68699        2.63670
C         -0.62499        2.47105        3.62945
H         -0.08197        2.22738        4.55124
H         -0.48524        3.53473        3.42126
H         -1.69060        2.30319        3.80574
H          0.79256        1.82980        2.28266
H         -2.97987        2.55278       -0.37228
H         -1.45545        3.22900       -1.00873
H         -2.86144        2.52554       -2.86456
H         -1.44276        1.47531       -2.78512
H         -3.74402        0.40171       -3.03963
H         -2.87848       -0.21930       -1.79683
H         -1.02427        1.67523        0.86938
H         -1.75759        0.43867       -0.01338
C         -2.05757        2.32248       -0.90974
C         -2.38560        1.73467       -2.27663
N         -1.27941        1.35454       -0.10327
N         -3.32313        0.62716       -2.14666
H         -0.37190        1.15554       -0.56119
