42
2msa2eda_52.log	Energy: -1072769.1310115
S         -2.08684       -1.56646       -0.17467
O         -1.61461       -2.23856       -1.40353
O         -3.37645       -0.87144       -0.27391
O         -0.99912       -0.65213        0.36082
C         -2.23655       -2.82765        1.07864
H         -2.93650       -3.58193        0.71776
H         -1.24240       -3.24721        1.24837
H         -2.61267       -2.35883        1.98838
S          2.46190        1.44697       -0.06924
O          1.93927        0.57180        1.00430
O          1.58472        2.62727       -0.30929
O          2.76702        0.69026       -1.31619
C          4.02110        2.10882        0.48991
H          3.84520        2.65486        1.41687
H          4.70491        1.27628        0.65686
H          4.40581        2.77402       -0.28329
H          0.98850       -3.53855       -0.75827
H          2.49477       -3.02180       -1.56643
H          2.95702       -3.58637        0.75330
H          3.18766       -1.84336        0.52931
H          1.82279       -2.68555        2.51723
H          1.18375       -1.45661        1.66347
H          0.47541       -1.65067       -1.97860
H          0.45805       -1.15925       -0.43925
C          1.76465       -2.77127       -0.79279
C          2.43352       -2.64297        0.56879
N          1.10438       -1.50130       -1.18715
N          1.43420       -2.44272        1.61313
H          1.78666       -0.73290       -1.37515
H         -1.57193        3.47072       -1.03439
H         -1.67055        1.78534       -1.58604
H         -3.95601        2.74501       -1.12882
H         -3.57782        1.34008       -0.12488
H         -3.64008        4.13180        0.76454
H         -4.26206        2.79912        1.48199
H         -0.00424        2.31256        0.22644
H         -1.37770        2.48754        1.23064
C         -1.86224        2.45633       -0.74680
C         -3.32202        2.38811       -0.30747
N         -1.00223        2.04350        0.38649
N         -3.48205        3.14499        0.93696
H         -1.03706        1.00037        0.49701
