42
2msa2eda_259.log	Energy: -1072755.6674632
S          1.14723        2.07199        0.85295
O          0.74803        2.09107       -0.66512
O          2.51099        2.54729        0.96057
O          0.83408        0.75482        1.42867
C          0.02278        3.24074        1.58452
H          0.21035        4.21568        1.13494
H         -0.99337        2.89998        1.37830
H          0.22298        3.26115        2.65617
S         -2.25222        0.25299       -1.10292
O         -2.65982       -0.46450        0.12880
O         -1.33474       -0.53202       -1.94899
O         -1.71116        1.62460       -0.80360
H         -0.25259        1.85101       -0.79003
C         -3.74117        0.55874       -2.03309
H         -4.19999       -0.40430       -2.25761
H         -4.40489        1.16912       -1.42072
H         -3.46814        1.08202       -2.94949
H         -0.06352       -3.61088        1.47504
H          1.23677       -2.48360        1.94442
H         -0.40868       -2.74354        3.76372
H         -0.39742       -1.08063        3.16111
H         -2.64087       -2.32005        3.46540
H         -2.46000       -1.54360        2.03547
H          0.42911       -2.04285       -0.33907
H         -1.11221       -1.70996        0.30713
C          0.16966       -2.57356        1.72513
C         -0.67471       -2.11544        2.90797
N         -0.10953       -1.74006        0.53539
N         -2.09200       -2.29511        2.61517
H          0.16370       -0.76385        0.73379
H          2.38285       -0.80546       -2.99369
H          1.19794       -0.12774       -1.87280
H          3.46068        0.31091       -1.05066
H          2.63536       -0.78277        0.05273
H          4.64699       -1.58825       -1.91846
H          4.69551       -1.77730       -0.30081
H          0.61374       -2.36878       -2.50457
H          2.02298       -2.94006       -1.84518
C          1.95763       -0.90493       -1.98347
C          3.06054       -0.70748       -0.95401
N          1.31500       -2.21221       -1.78686
N          4.07155       -1.76041       -1.09949
