34
2msa1a1eda_203.log	Energy: -988701.7682288
S         -2.77424       -1.34289        0.02907
O         -3.87101       -2.21669       -0.32635
O         -2.63684       -0.27095       -1.12166
O         -1.45849       -1.94726        0.28857
H          0.22864       -1.75522       -0.33248
C         -3.20537       -0.37509        1.45500
H         -4.17272        0.08809        1.26063
H         -3.26856       -1.06260        2.29930
H         -2.42997        0.38073        1.60578
S         -0.07656        2.06060       -0.02873
O          1.36095        1.96394        0.29019
O         -0.99307        1.96769        1.11427
O         -0.43292        1.05490       -1.11213
H         -1.78366        0.27766       -1.06497
C         -0.33202        3.65204       -0.79236
H         -0.06369        4.41600       -0.06232
H          0.30533        3.71805       -1.67403
H         -1.38410        3.73501       -1.06571
N          1.06566       -1.21064       -0.59043
H          1.71867       -1.71623       -1.19347
H          1.62465       -0.95545        0.26469
H          0.70548       -0.33473       -1.01475
H          5.33008       -1.65116        0.74696
H          5.42591       -1.09309       -0.92160
H          4.74086        0.71524        0.56955
H          3.50280        0.37730       -0.63709
H          3.35521       -0.53683        2.14934
H          2.44298        0.62004        1.40253
H          4.31564       -3.08134       -1.08123
H          3.38041       -2.82724        0.22217
C          4.72558       -1.31829       -0.11174
C          3.99730       -0.02873        0.25132
N          3.80358       -2.36496       -0.57772
N          2.95606       -0.25158        1.26025
