42
2msa2eda_39.log	Energy: -1072770.7831435
S          2.75516       -0.99379       -0.00762
O          2.15965       -1.74188        1.13465
O          3.43220        0.25870        0.37887
O          1.74957       -0.79367       -1.09759
C          4.00653       -2.06666       -0.69112
H          4.75267       -2.24805        0.08278
H          3.53212       -2.99983       -0.99501
H          4.45531       -1.56515       -1.54867
S         -2.67629        1.02691       -0.19261
O         -3.34947       -0.19091       -0.67992
O         -2.11829        1.89216       -1.26439
O         -1.63226        0.72839        0.84475
C         -3.91368        2.00188        0.64509
H         -4.68311        2.26186       -0.08213
H         -4.33243        1.39943        1.45138
H         -3.43780        2.89903        1.04088
H         -1.25582       -1.55283       -1.06580
H          0.01357       -2.76674       -0.86618
H         -2.35494       -3.66803       -1.29940
H         -1.55950       -4.34785        0.12889
H         -3.44922       -2.09930        0.25419
H         -3.72832       -3.63967        0.79043
H         -0.93602       -0.80213        0.95130
H         -1.11600       -2.29482        1.61816
C         -0.90257       -2.36716       -0.43241
C         -1.98928       -3.42997       -0.29065
N         -0.58311       -1.78689        0.90662
N         -3.01223       -2.94265        0.62786
H          0.44360       -1.79674        1.09730
H          2.59595        2.05267       -1.15480
H          1.46342        3.25596       -1.82191
H          2.86087        4.03613        0.17849
H          1.11406        4.23212        0.39692
H          2.61840        1.92948        1.45678
H          1.87365        3.12858        2.33713
H          0.87371        0.72419       -1.01449
H          0.45706        1.61558        0.31384
C          1.69923        2.64107       -0.95216
C          1.91517        3.49011        0.30383
N          0.59440        1.67903       -0.70952
N          1.86443        2.61516        1.46593
H         -0.33125        1.92570       -1.10903
