42
2msa2eda_286.log	Energy: -1072753.8716880
S         -0.55599       -1.81007        0.60902
O         -1.59769       -2.77363        0.23989
O         -0.94012       -0.87432        1.69986
O         -0.06251       -1.01749       -0.58093
C          0.84872       -2.72989        1.20531
H          1.63306       -2.01839        1.46881
H          0.52134       -3.29389        2.07906
H          1.17444       -3.40630        0.41420
S          3.19006        0.06712       -0.47874
O          2.80877        0.00672        0.93105
O          3.22646        1.38863       -1.10067
O          2.31123       -0.92118       -1.31966
H          1.31513       -0.95058       -1.00299
C          4.78484       -0.68590       -0.69631
H          4.76093       -1.68144       -0.25441
H          4.99931       -0.73328       -1.76364
H          5.50814       -0.05069       -0.18432
H         -1.33662        3.59488        1.23843
H         -0.93647        2.41487        2.50636
H          1.11230        3.66998        1.72531
H          1.24066        1.93807        1.39470
H          0.77844        4.02268       -0.58065
H          1.69621        2.65385       -0.67867
H         -2.36167        1.64877        0.43121
H         -0.82097        1.66009       -0.29361
C         -0.78180        2.67751        1.45806
C          0.70095        2.85101        1.12128
N         -1.31902        1.59559        0.60575
N          0.82919        3.04561       -0.31851
H         -1.12362        0.65429        1.02138
H         -5.21889        0.96700       -1.72461
H         -3.65007        1.72894       -2.04045
H         -3.61775       -0.70763       -2.54932
H         -2.46309       -0.30037       -1.29102
H         -4.92954       -1.77379       -0.93604
H         -3.45894       -1.96093       -0.21420
H         -4.69594        2.24999        0.18536
H         -4.39020        0.67992        0.57755
C         -4.17262        1.01906       -1.38924
C         -3.53480       -0.36727       -1.50769
N         -4.07361        1.46844        0.00794
N         -4.13974       -1.27762       -0.54056
