37
2msa1ma1eda_151.log	Energy: -1013364.1886776
S          0.60874        1.83831       -0.20147
O          2.04191        1.55947       -0.01271
O         -0.20438        1.78674        1.02980
O          0.02981        0.94219       -1.27859
C          0.46439        3.49017       -0.85547
H          0.87323        4.17920       -0.11606
H          1.02892        3.53962       -1.78647
H         -0.59170        3.69603       -1.03125
S         -2.85069       -0.74021       -0.08524
O         -1.70124       -1.55961        0.31755
O         -4.08640       -1.40012       -0.44660
O         -2.43192        0.17145       -1.30829
H         -1.47476        0.49846       -1.24808
C         -3.15023        0.43641        1.21275
H         -3.42965       -0.12850        2.10306
H         -2.23029        1.00459        1.37048
H         -3.96903        1.08212        0.89527
N          0.95498       -0.86358        2.08341
H          0.33441       -0.05955        1.98216
C          2.16555       -0.46590        2.81091
H          1.97619       -0.22821        3.86496
H          2.91011       -1.26283        2.74900
H          2.57970        0.41948        2.32512
H          0.43849       -1.57565        2.59106
H          2.27678       -3.22338       -0.55938
H          1.63790       -2.78087       -2.16361
H          3.99969       -2.11611       -1.90778
H          2.96231       -0.70958       -2.16287
H          4.71100       -0.76735       -0.23051
H          3.24702       -0.09814        0.04888
H          0.02901       -2.12212       -0.52344
H          1.11970       -1.36945        0.47323
C          2.01316       -2.38925       -1.21385
C          3.22772       -1.49731       -1.44014
N          0.92625       -1.62966       -0.55889
N          3.72099       -0.97276       -0.17431
H          0.72083       -0.73093       -1.03246
