38
2msa2dma_166.log	Energy: -1003279.5068615
S         -2.84619       -0.00138        0.59402
O         -2.63481        0.48864       -0.78226
O         -2.55019        0.95190        1.65439
O         -2.10145       -1.35376        0.80297
H         -1.07469       -1.26545        0.59463
C         -4.52623       -0.55501        0.72466
H         -4.70796       -1.29021       -0.05848
H         -4.66340       -0.99037        1.71418
H         -5.16155        0.32145        0.59550
S          1.10630       -1.51447       -0.79499
O          0.40676       -2.57226       -1.51491
O          0.30553       -0.95352        0.36600
O          1.56972       -0.36866       -1.63898
H          0.53618        0.87622       -1.45958
C          2.57252       -2.20059       -0.05622
H          2.25963       -3.01761        0.59486
H          3.19629       -2.57912       -0.86699
H          3.09688       -1.42553        0.51169
N         -0.16104        1.65379       -1.29506
C         -0.19330        2.54692       -2.46848
C          0.16461        2.32605       -0.01791
H         -1.08334        1.18788       -1.18247
H          0.78687        3.00937       -2.59434
H         -0.43420        1.95659       -3.35259
H         -0.95158        3.31762       -2.32001
H          1.14780        2.79206       -0.10092
H         -0.59784        3.07396        0.20353
H          0.17522        1.56912        0.76521
N          3.82426        0.50928        1.63335
C          2.61240        0.65555        2.42704
C          3.82515        1.33508        0.43634
H          4.63622        0.72503        2.20003
H          1.76465        0.22511        1.88403
H          2.71820        0.10419        3.36492
H          2.37350        1.70754        2.66781
H          3.05660        0.97503       -0.25647
H          3.63715        2.40547        0.64333
H          4.78981        1.24716       -0.07072
