35
2msa1ma1dma_127.log	Energy: -978623.4740010
S          1.18801       -1.83616       -0.10354
O          1.99512       -2.96715        0.29815
O          1.26807       -0.76572        1.05668
O         -0.23384       -2.08433       -0.41287
H         -1.72364       -1.36339       -0.04783
C          1.91667       -1.01670       -1.49552
H          2.92466       -0.70827       -1.19931
H          1.93406       -1.73875       -2.31283
H          1.29707       -0.14898       -1.73573
S         -0.90064        1.83644       -0.22693
O         -2.31729        1.58256       -0.61635
O          0.07326        1.68488       -1.31297
O         -0.55535        1.00457        0.98105
H          0.55892       -0.03606        0.97733
C         -0.83411        3.52864        0.32492
H         -1.10678        4.16561       -0.51682
H         -1.53669        3.65292        1.14864
H          0.18669        3.73426        0.64826
N          4.01000        0.58212        0.44039
H          3.48071        0.03197        1.11005
C          3.36543        1.87726        0.23080
H          3.22049        2.46767        1.14859
H          3.96518        2.47195       -0.46431
H          2.38631        1.72669       -0.23388
H          4.94602        0.69698        0.81205
N         -2.68783       -1.00493        0.11365
C         -2.96883       -1.05182        1.56428
C         -3.63019       -1.77065       -0.72544
H         -2.65678       -0.00054       -0.19644
H         -2.90239       -2.08393        1.91177
H         -2.22356       -0.43332        2.06435
H         -3.96872       -0.65564        1.74827
H         -3.59012       -2.82459       -0.44664
H         -4.63942       -1.38220       -0.58062
H         -3.33878       -1.65600       -1.76931
