42
2msa2eda_94.log	Energy: -1072769.6023903
S          2.81437       -0.01431       -0.16819
O          1.89456        0.69581       -1.08468
O          2.76251       -1.49276       -0.37027
O          2.61921        0.38612        1.25326
C          4.48182        0.46525       -0.58310
H          4.66086        0.20677       -1.62688
H          4.57637        1.54056       -0.43039
H          5.16360       -0.07758        0.07168
S         -2.73943       -0.15485       -0.12774
O         -1.44005        0.16422       -0.84491
O         -2.66488        0.24348        1.29525
O         -3.14504       -1.54869       -0.36426
C         -3.93525        0.91987       -0.89795
H         -3.57948        1.94567       -0.78804
H         -4.01384        0.64833       -1.95084
H         -4.89018        0.77789       -0.39126
H         -1.40133       -3.14059       -0.58784
H          0.07076       -4.07343       -0.99176
H         -0.24741       -4.01684        1.43661
H          1.23928       -3.16796        0.97155
H         -1.26231       -1.83652        1.73632
H          0.21841       -1.74701        2.45002
H          0.14224       -2.11266       -2.25918
H         -0.34995       -1.13275       -1.02058
C         -0.31112       -3.16875       -0.51285
C          0.14655       -3.11785        0.93966
N          0.21161       -1.98733       -1.25227
N         -0.26027       -1.86509        1.56439
H          1.21340       -1.80119       -0.99925
H         -1.23178        2.93900        1.50038
H          0.41483        3.09212        2.17360
H          0.35718        4.45114        0.21414
H          1.27814        2.99929       -0.22941
H         -0.45265        3.69157       -1.85198
H         -0.75571        2.18788       -1.30071
H          0.97403        0.94121        1.38960
H         -0.61814        0.78445        1.96336
C         -0.17406        2.72742        1.32893
C          0.27717        3.37544        0.02755
N         -0.01666        1.24958        1.28198
N         -0.71549        3.16744       -1.02471
H         -0.36092        0.86115        0.38156
