32
2msa2ma_90.log	Energy: -953961.2621678
S          2.11737       -1.02298        0.10969
O          3.36202       -1.72061       -0.17032
O          1.03594       -1.31269       -0.92519
O          2.22922        0.45641        0.26144
H          1.18637        1.20839       -0.86411
C          1.46415       -1.63388        1.65426
H          1.33010       -2.71229        1.56219
H          2.19913       -1.40782        2.42732
H          0.51351       -1.13894        1.86237
S         -2.08691       -0.71157       -0.04531
O         -2.00158        0.31798       -1.09355
O         -1.73761       -0.27441        1.30497
O         -1.26985       -1.96998       -0.45493
H         -0.23901       -1.72196       -0.64033
C         -3.73125       -1.37606       -0.04509
H         -4.40421       -0.56161        0.22400
H         -3.95039       -1.75142       -1.04399
H         -3.77397       -2.17407        0.69557
N          0.01212        2.37915        1.12012
H         -0.66259        1.64327        1.31706
C         -0.30854        3.58181        1.88455
H         -0.35853        3.43146        2.97271
H          0.44296        4.35274        1.68718
H         -1.27528        3.97504        1.55556
H          0.91868        2.00485        1.38801
N          0.54903        1.42748       -1.66773
H          0.80240        0.77466       -2.40903
C          0.63439        2.84454       -2.07298
H         -0.05364        3.03352       -2.89721
H          0.35992        3.43674       -1.20052
H          1.65651        3.06972       -2.37712
H         -0.40507        1.17212       -1.36035
