29
2msa1a1ma_142.log	Energy: -929288.8158935
S          2.22637       -1.10301        0.15253
O          3.01049       -2.23831        0.59278
O          1.55959       -0.25806        1.14240
O          1.11537       -1.65436       -0.85673
H          0.25524       -1.18596       -0.71870
C          3.21134       -0.07588       -0.90607
H          4.03143        0.30783       -0.29692
H          3.59525       -0.70069       -1.71280
H          2.57705        0.74095       -1.27588
S         -1.87871        0.41406        0.37939
O         -1.50018        1.78474        0.08958
O         -1.34598       -0.64449       -0.50279
O         -3.44195        0.27431        0.36981
H         -3.75634       -0.46241       -0.31034
C         -1.45748        0.03009        2.05760
H         -0.36729        0.05347        2.11821
H         -1.91632        0.78345        2.69792
H         -1.83701       -0.96611        2.28394
N         -4.08348       -1.55358       -1.34880
H         -4.57478       -1.20592       -2.16649
H         -4.58620       -2.36278       -0.99811
H         -3.15442       -1.85304       -1.63855
N          1.24159        2.50477       -1.22697
H          1.23815        3.19857       -1.96696
C          1.81609        3.06109       -0.00162
H          1.29852        3.95264        0.37959
H          1.79080        2.29292        0.77590
H          2.86506        3.32310       -0.17558
H          0.27341        2.24657       -1.05541
