40
2msa1dma1eda_211.log	Energy: -1038020.1175849
S          2.60265       -0.53318       -0.20147
O          2.96146        0.87908        0.09317
O          2.58956       -0.89459       -1.61850
O          1.30161       -0.86918        0.49655
C          3.84154       -1.52704        0.61093
H          4.80599       -1.28671        0.16293
H          3.83830       -1.28769        1.67428
H          3.59560       -2.57662        0.44745
S         -1.85893       -1.76656       -0.23463
O         -2.06974       -0.69505       -1.20476
O         -2.11750       -1.43231        1.16807
O         -0.44054       -2.40328       -0.39620
H          0.32556       -1.77230       -0.05841
C         -2.85683       -3.16480       -0.68665
H         -3.89783       -2.85049       -0.60634
H         -2.61348       -3.44160       -1.71206
H         -2.64267       -3.97857        0.00523
N         -0.85467        1.19658        1.92683
C         -2.00586        2.00866        2.30565
C          0.15357        1.09468        2.98060
H         -1.18244        0.25832        1.69474
H         -1.69632        3.05071        2.44488
H         -2.75368        1.97231        1.50919
H         -2.47741        1.66452        3.23756
H          0.58891        2.08237        3.17122
H         -0.26332        0.71509        3.92462
H          0.94403        0.42285        2.63991
H          0.79701        1.94410       -2.27502
H         -0.04788        0.61755       -1.45844
H         -1.66312        1.98642       -2.75266
H         -2.00059        2.03813       -1.02851
H         -0.73425        4.18450       -2.57608
H         -2.03439        4.27173       -1.59341
H          1.54311        1.86638       -0.05139
H          0.49697        3.20991       -0.20283
C          0.05591        1.70086       -1.50850
C         -1.28549        2.35770       -1.79214
N          0.56399        2.18975       -0.20444
N         -1.13917        3.81531       -1.72159
H         -0.03459        1.79571        0.60923
