42
2msa2eda_292.log	Energy: -1072754.8684805
S         -1.37533       -2.02262       -0.21481
O         -2.65985       -1.76955       -0.87478
O         -1.40398       -2.15757        1.24888
O         -0.35079       -0.96651       -0.62080
C         -0.73045       -3.54967       -0.88068
H         -1.43505       -4.34171       -0.62585
H         -0.64565       -3.44550       -1.96249
H          0.24281       -3.74425       -0.42854
S          2.62191        0.49794       -0.96223
O          4.02942        0.63950       -0.65256
O          1.68647        1.55017       -0.56953
O          2.15360       -0.88351       -0.33901
H          1.13961       -0.99586       -0.43016
C          2.41166        0.22791       -2.70976
H          2.70809        1.14604       -3.21811
H          3.05045       -0.60291       -3.00856
H          1.35898        0.00755       -2.89320
H         -0.28340        1.12228        3.57555
H         -1.17564       -0.26577        2.88012
H          0.96987       -1.01034        3.95358
H          0.90505       -1.34990        2.22849
H          2.61300        0.59859        3.53857
H          2.85815       -0.24234        2.14458
H         -0.96427        1.72916        1.34560
H          0.71480        1.37812        1.33661
C         -0.26600        0.33321        2.81831
C          0.97765       -0.54218        2.96183
N         -0.22318        0.98322        1.49004
N          2.17050        0.25580        2.69571
H         -0.35209        0.28086        0.74028
H         -2.79953        3.85150       -0.94294
H         -1.06948        3.49194       -0.77370
H         -2.20559        2.01582       -2.44568
H         -1.46001        1.10461       -1.14316
H         -4.30004        1.44113       -1.57884
H         -3.45140        0.14927       -1.00190
H         -2.34598        3.68558        1.37057
H         -3.11352        2.29413        0.92769
C         -2.07610        3.10073       -0.59231
C         -2.27533        1.79746       -1.37056
N         -2.24324        2.82436        0.84383
N         -3.53149        1.16403       -0.98020
