35
2msa1ma1dma_334.log	Energy: -978608.6808857
S          1.32970        0.95129        0.74139
O          0.60580        0.48892       -0.50048
O          2.29709        2.00668        0.44256
O          1.95269       -0.25204        1.40955
H          2.72851       -1.02938        0.42871
C          0.10093        1.55449        1.86631
H         -0.46424        2.32787        1.33551
H         -0.55515        0.72221        2.12904
H          0.61894        1.94750        2.74139
S         -2.32520       -1.23652        0.15353
O         -3.09840       -0.23658       -0.57038
O         -2.08986       -1.02889        1.57600
O         -0.94771       -1.50134       -0.58532
H         -0.33379       -0.67894       -0.50971
C         -3.07539       -2.83069       -0.08760
H         -4.05529       -2.78639        0.38874
H         -3.17644       -3.01005       -1.15749
H         -2.45066       -3.58577        0.38828
N         -1.65076        2.65457       -0.69748
H         -0.83256        2.23589       -1.13032
C         -2.14114        3.78256       -1.47963
H         -2.41743        3.53981       -2.51807
H         -3.02221        4.20911       -0.99079
H         -1.37612        4.56447       -1.50976
H         -2.34723        1.91588       -0.64453
N          3.30184       -1.51134       -0.37696
C          4.23182       -0.49011       -0.91866
C          2.34894       -2.04307       -1.38125
H          3.82979       -2.27609        0.03997
H          3.64284        0.37189       -1.23545
H          4.90700       -0.17328       -0.12415
H          4.79194       -0.90571       -1.75826
H          1.77663       -1.20153       -1.77231
H          2.89479       -2.54742       -2.18101
H          1.66340       -2.73205       -0.88778
