37
2msa1ma1eda_476.log	Energy: -1013350.2135209
S          0.68155        1.48554        0.64778
O          1.95662        2.12365        0.33289
O          0.10574        0.72939       -0.53912
O         -0.36907        2.42285        1.15381
H         -1.71698        2.29569        0.33501
C          0.94362        0.26557        1.91197
H          1.34846        0.78477        2.78169
H         -0.01825       -0.19403        2.14744
H          1.65738       -0.47660        1.53159
S         -2.24951       -1.46475        0.07174
O         -3.09086       -0.51751       -0.68604
O         -2.17036       -1.23270        1.50688
O         -0.83247       -1.54956       -0.57444
H         -0.36251       -0.60312       -0.54212
C         -2.84046       -3.10591       -0.24660
H         -3.83960       -3.17235        0.18458
H         -2.86755       -3.26304       -1.32421
H         -2.16296       -3.80755        0.23933
N         -2.53987        2.20690       -0.34072
H         -2.78296        1.19903       -0.41175
C         -2.13478        2.73018       -1.66728
H         -2.94848        2.60128       -2.38104
H         -1.87494        3.78398       -1.56989
H         -1.25789        2.16452       -1.98089
H         -3.33940        2.70674        0.04127
H          4.44733       -2.42639       -0.98064
H          2.69467       -2.70590       -1.02779
H          3.38646       -0.77525       -2.43748
H          2.25138       -0.31508       -1.17128
H          4.94190        0.57508       -1.45597
H          3.72124        1.17390       -0.51891
H          3.57316       -2.70818        1.25480
H          4.03242       -1.14447        1.04576
C          3.46980       -2.01333       -0.67890
C          3.27557       -0.65455       -1.35125
N          3.34874       -1.84699        0.76843
N          4.20902        0.33062       -0.80361
