40
2msa1dma1eda_243.log	Energy: -1038019.4116932
S         -2.58245        0.31756       -0.43307
O         -1.43076        1.22857       -0.56805
O         -3.09302        0.10378        0.90896
O         -2.28120       -1.02175       -1.17299
C         -3.89618        0.94648       -1.45276
H         -4.70355        0.21439       -1.44873
H         -4.22786        1.88572       -1.00947
H         -3.51114        1.10060       -2.46005
S          0.89355       -1.93733       -0.07001
O          0.04781       -1.77802        1.12791
O          2.13687       -1.13590       -0.02595
O          0.11493       -1.67545       -1.33202
H         -1.26595       -1.28848       -1.19219
C          1.38232       -3.64810       -0.16919
H          1.97368       -3.88054        0.71671
H          0.47797       -4.25604       -0.20159
H          1.97245       -3.78244       -1.07573
N          2.42259        2.19658       -1.43084
C          1.55674        1.53007       -2.41088
C          3.74016        1.56278       -1.33643
H          2.53355        3.17195       -1.68947
H          1.38595        0.49641       -2.09584
H          0.58816        2.03428       -2.44818
H          1.99854        1.51673       -3.41783
H          3.61004        0.54202       -0.96598
H          4.25655        1.51781       -2.30673
H          4.36506        2.11705       -0.63094
H          1.64777        2.41902        2.48014
H          0.13518        3.00049        1.72771
H         -0.30235        1.87784        3.89382
H         -1.06713        1.00304        2.56213
H          0.48982       -0.18209        4.35475
H          0.46561       -0.70434        2.80047
H          1.57336        1.84545        0.08055
H          1.50891        0.46245        1.01046
C          0.69892        2.11476        2.03258
C         -0.09793        1.26026        3.01361
N          0.99987        1.33537        0.81116
N          0.68346        0.09066        3.39995
H          0.11514        1.07941        0.33889
