42
2msa2eda_311.log	Energy: -1072755.4735001
S          1.21403        1.88845        0.37452
O          2.28248        1.98144       -0.63189
O          1.53378        1.04266        1.54107
O         -0.09005        1.45907       -0.26495
C          0.91258        3.53711        0.98592
H          1.83617        3.89633        1.44042
H          0.62840        4.16774        0.14334
H          0.11454        3.49039        1.72747
S         -3.19080        0.09959       -0.41615
O         -3.96548       -0.87237        0.34083
O         -2.26970       -0.38423       -1.43727
O         -2.40499        0.99543        0.62123
H         -1.46404        1.24187        0.29306
C         -4.31610        1.26212       -1.15463
H         -4.93142        0.70910       -1.86506
H         -4.93118        1.69066       -0.36369
H         -3.73314        2.03006       -1.66312
H          1.00127       -2.82569        1.09946
H          0.80231       -1.18285        1.73849
H         -1.01699       -2.75399        2.54783
H         -1.63917       -1.36231        1.67241
H         -1.68808       -4.10707        0.78252
H         -2.69478       -2.84919        0.42677
H          1.23659       -1.37958       -0.77485
H         -0.37316       -2.00739       -0.79841
C          0.35150       -1.94810        1.10710
C         -1.06793       -2.28811        1.55605
N          0.29938       -1.42776       -0.27977
N         -1.72556       -3.12221        0.55196
H         -0.05028       -0.45754       -0.31256
H          4.59733        0.18604       -0.28763
H          5.39238       -1.37758       -0.08012
H          4.60856       -1.10661       -2.35792
H          3.78546       -2.46504       -1.56037
H          2.56449        0.21159       -1.68297
H          2.28837       -0.94781       -2.80953
H          4.05612       -1.43792        1.71054
H          2.90880       -0.47130        1.08872
C          4.41944       -0.89825       -0.23294
C          3.88007       -1.37326       -1.57785
N          3.52384       -1.25383        0.86820
N          2.55438       -0.79984       -1.84077
