44
2msa2tma_61.log	Energy: -1052597.6564562
S         -2.92741        0.84255       -0.11560
O         -3.17824       -0.48406       -0.67579
O         -2.05819        1.72635       -0.88548
O         -2.42134        0.72216        1.37243
H         -1.49648        0.28442        1.37692
C         -4.48054        1.64997        0.18473
H         -4.95242        1.79353       -0.78769
H         -5.08823        1.00516        0.81883
H         -4.28566        2.60807        0.66546
S          0.92264       -1.06254        1.75192
O          0.41888       -1.92771        2.81201
O         -0.14916       -0.30126        1.01555
O          1.75894       -1.75427        0.71557
H          0.88483       -1.73966       -0.64583
C          1.97730        0.17212        2.48589
H          1.38853        0.70440        3.23421
H          2.81067       -0.34700        2.96086
H          2.33160        0.85731        1.70954
N          0.38308       -1.95889       -1.55389
C         -0.84117       -2.71323       -1.17761
H         -0.54847       -3.54269       -0.53271
H         -1.51755       -2.04316       -0.64758
H         -1.32300       -3.08327       -2.08558
C          0.05822       -0.69027       -2.25108
H         -0.54958       -0.06653       -1.59750
H          0.98870       -0.17353       -2.48848
H         -0.49201       -0.91887       -3.16670
C          1.32869       -2.79300       -2.32846
H          2.24098       -2.22170       -2.50465
H          1.56870       -3.68359       -1.74693
H          0.87119       -3.07352       -3.27981
N          2.78250        2.09190       -0.30238
C          3.26344        0.91194       -0.99549
H          4.32294        0.75317       -0.77300
H          2.71704        0.02847       -0.65027
H          3.15636        1.00019       -2.09739
C          1.37166        2.32387       -0.57268
H          0.77558        1.47012       -0.24186
H          1.02652        3.20262       -0.02127
H          1.17377        2.49749       -1.64861
C          3.58174        3.25767       -0.63284
H          3.23176        4.12154       -0.06054
H          4.63010        3.07815       -0.37610
H          3.52828        3.51366       -1.70948
