40
2msa1dma1eda_428.log	Energy: -1038012.3378731
S          0.74710        1.97028        0.23152
O          0.06472        3.18330        0.66404
O         -0.11101        1.10289       -0.67587
O          1.27598        1.11258        1.33956
H          0.46400       -0.21048        1.60694
C          2.16105        2.40518       -0.75235
H          1.80219        2.93775       -1.63355
H          2.78680        3.05670       -0.14073
H          2.69943        1.48702       -1.01491
S         -3.09312       -0.27237       -0.35608
O         -2.71529       -0.55139        1.04421
O         -2.72834       -1.29836       -1.32290
O         -2.58491        1.13619       -0.77997
H         -1.53563        1.20473       -0.73212
C         -4.84370        0.00887       -0.39974
H         -5.32311       -0.92674       -0.11098
H         -5.08376        0.80549        0.30345
H         -5.11488        0.28441       -1.41854
N          3.69787       -0.57499       -0.68672
C          4.25076       -0.39641        0.64399
C          4.53593       -1.39842       -1.53834
H          2.77132       -0.99910       -0.62011
H          5.19913        0.15045        0.58155
H          3.55640        0.19374        1.24856
H          4.45678       -1.35083        1.16569
H          5.49151       -0.89375       -1.72243
H          4.76202       -2.39135       -1.10683
H          4.04605       -1.54880       -2.50482
H         -0.99904       -2.64243       -0.08384
H          0.43183       -3.67815       -0.11826
H         -0.06058       -3.11822        2.16456
H          1.48073       -2.35073        1.69725
H         -1.10051       -0.87846        1.60688
H         -0.14422       -0.94598        2.96350
H          0.74482       -2.10325       -1.77845
H          0.38583       -0.82530       -0.84466
C          0.09016       -2.65482        0.06730
C          0.40123       -2.35975        1.52747
N          0.80744       -1.75590       -0.82742
N         -0.12853       -1.03095        1.94874
