26
2msa2a_43.log	Energy: -904642.4421796
S         -1.88335       -0.16535        0.18501
O         -0.99198       -0.30315       -1.02625
O         -1.25043        0.61495        1.25837
O         -2.33393       -1.52717        0.60068
H         -1.13891       -2.53454        0.12112
C         -3.31434        0.73074       -0.36324
H         -2.95866        1.71240       -0.68893
H         -3.77440        0.17838       -1.18242
H         -3.99842        0.81606        0.48157
S          2.28671        0.01720       -0.01734
O          3.65255        0.24099       -0.43368
O          1.86073       -1.37558        0.22593
O          1.33488        0.66088       -1.09175
H          0.37405        0.29567       -1.04095
C          1.94076        0.93944        1.45985
H          2.57449        0.53295        2.24886
H          2.18945        1.98274        1.26379
H          0.87950        0.81951        1.69046
N         -0.28686       -2.95109       -0.35965
H         -0.12473       -3.91951       -0.09792
H          0.54103       -2.35571       -0.12239
H         -0.44433       -2.86825       -1.36229
N         -0.94435        3.16637       -0.48141
H         -0.84362        4.15892       -0.30138
H         -0.15914        2.87058       -1.05265
H         -0.88451        2.66583        0.40180
