37
2msa1ma1eda_189.log	Energy: -1013363.9046166
S         -2.20228       -1.11643       -0.50848
O         -3.28217       -2.08203       -0.67235
O         -0.93193       -1.43128       -1.20213
O         -1.90640       -0.82488        0.95977
H         -0.29099       -1.75399        1.17024
C         -2.76229        0.44534       -1.17855
H         -3.00080        0.27847       -2.22963
H         -3.66145        0.74962       -0.64024
H         -1.96158        1.18482       -1.09258
S          1.41568        1.75224       -0.60494
O          2.52919        2.68653       -0.70859
O          0.06241        2.39785       -0.51422
O          1.56613        0.77073        0.53158
H         -1.44487        0.65495        1.46059
C          1.36279        0.77356       -2.09539
H          1.14881        1.45093       -2.92304
H          2.34437        0.31782       -2.23456
H          0.57968        0.01728       -1.99226
N         -1.12944        1.63264        1.71431
H         -0.40240        1.56652        2.42375
C         -2.26378        2.47211        2.14691
H         -1.91388        3.48258        2.35817
H         -2.99304        2.50588        1.33799
H         -2.72951        2.04083        3.03310
H         -0.65565        2.01703        0.84022
H          1.37953       -3.66696        0.88320
H          0.83047       -2.83343       -0.59883
H          3.41787       -3.14850       -0.28888
H          2.84538       -1.54865       -0.75897
H          4.39993       -2.01650        1.39655
H          3.41264       -0.71461        1.25139
H          1.14413       -1.70443        2.07933
H          0.94520       -0.73382        0.75457
C          1.40855       -2.73117        0.32014
C          2.84715       -2.28212        0.05560
N          0.74098       -1.69040        1.14222
N          3.43696       -1.73087        1.27772
