38
2msa1ma1tma_65.log	Energy: -1003280.1248391
S         -0.47440       -1.88811        0.06227
O         -1.34712       -2.98713       -0.28701
O         -0.52781       -0.84788       -1.12553
O          0.94255       -2.20377        0.34142
H          2.40359       -1.51080       -0.09901
C         -1.12030       -0.99787        1.44843
H         -2.13427       -0.67254        1.18059
H         -1.11943       -1.68785        2.29345
H         -0.47558       -0.13390        1.62925
S          1.68441        1.74692        0.10350
O          3.03147        1.40425        0.64787
O          0.60554        1.77050        1.09380
O          1.38352        0.84892       -1.07069
H          0.20623       -0.14586       -1.06759
C          1.83010        3.38614       -0.57888
H          2.61099        3.37848       -1.33882
H          0.86749        3.65488       -1.01432
H          2.08766        4.06513        0.23425
N          3.33856       -1.09655       -0.31490
H          3.35031       -0.91882       -1.31812
C          4.43839       -1.97552        0.13048
H          5.39644       -1.50463       -0.08891
H          4.34272       -2.12506        1.20520
H          4.36664       -2.93769       -0.37616
H          3.34868       -0.14586        0.14311
N         -3.66746        0.48640        0.08282
C         -2.84824        1.64905       -0.21927
H         -2.54032        2.14087        0.70794
H         -1.94405        1.33286       -0.74500
H         -3.38331        2.38581       -0.84883
C         -4.00285       -0.25254       -1.12417
H         -3.08630       -0.55305       -1.63755
H         -4.55746       -1.15819       -0.86200
H         -4.62042        0.34623       -1.82120
C         -4.85731        0.85564        0.82714
H         -5.42305       -0.04277        1.09219
H         -4.57425        1.36808        1.75172
H         -5.52391        1.52626        0.25085
