37
2msa1ma1eda_160.log	Energy: -1013362.5746354
S         -1.40226        2.09192        0.24014
O         -2.46995        2.52613        1.11572
O         -1.72330        1.09942       -0.79651
O         -0.23207        1.55119        1.14248
C         -0.66268        3.48440       -0.58352
H         -1.40597        3.88778       -1.27181
H         -0.39054        4.21998        0.17305
H          0.21644        3.12597       -1.12171
S          2.62512       -0.14947       -0.28884
O          2.26701       -1.18756       -1.28611
O          2.75899       -0.64621        1.08977
O          1.67857        1.02325       -0.37664
H          0.59350        1.28248        0.57220
C          4.20492        0.50258       -0.78973
H          4.10155        0.91734       -1.79224
H          4.49577        1.27298       -0.07569
H          4.92101       -0.31929       -0.78270
N         -0.04956       -1.41261        1.88973
H          0.96122       -1.25566        1.89712
C         -0.40791       -2.58554        2.68883
H         -0.12529       -2.49930        3.74495
H         -1.48822       -2.75108        2.63665
H          0.08757       -3.46784        2.27504
H         -0.46962       -0.56605        2.26463
H         -1.32122       -2.67508       -2.35716
H         -0.81599       -3.52056       -0.87240
H         -3.23234       -3.43323       -0.93519
H         -2.66896       -2.38904        0.37258
H         -4.43208       -1.50358       -1.26517
H         -3.16025       -0.49608       -1.04777
H          0.50403       -1.49899       -1.22684
H         -0.87682       -0.56532       -1.13381
C         -1.29891       -2.62256       -1.26669
C         -2.71699       -2.49119       -0.72486
N         -0.46689       -1.46775       -0.85932
N         -3.43179       -1.41333       -1.39313
H         -0.36642       -1.44472        0.21048
