34
2msa1a1eda_260.log	Energy: -988693.0197805
S          2.20221       -1.02102       -0.36990
O          2.24523       -1.71927        0.93288
O          3.10338        0.14868       -0.45981
O          0.79458       -0.65884       -0.75637
C          2.74738       -2.18792       -1.60722
H          3.77865       -2.45847       -1.37929
H          2.10213       -3.06581       -1.56516
H          2.68242       -1.70681       -2.58323
S         -2.71001       -0.72664        0.10380
O         -2.16937        0.50382        0.65952
O         -3.10449       -0.77471       -1.29333
O         -4.03465       -1.08485        0.97971
H         -4.76687       -1.22593        0.36266
C         -1.64039       -2.07203        0.51947
H         -0.67945       -1.84918        0.03982
H         -1.53152       -2.09709        1.60378
H         -2.08741       -2.99086        0.14085
N          2.69557        0.91948        2.41005
H          3.01652        1.20788        3.32770
H          3.44319        1.07150        1.73565
H          2.56012       -0.09321        2.40753
H          1.19133        3.57820        0.25302
H          1.87638        2.23453       -0.71803
H          0.15485        3.59186       -1.98398
H         -0.28848        1.89093       -1.82544
H         -1.85582        3.99014       -1.05832
H         -2.02710        2.46886       -0.46565
H          1.27998        1.50128        1.50489
H         -0.34929        1.94088        1.17485
C          0.97126        2.63772       -0.25788
C         -0.15566        2.82637       -1.26725
N          0.54013        1.65323        0.76295
N         -1.37803        3.24094       -0.57643
H          0.40855        0.73478        0.28651
