42
2msa2eda_533.log	Energy: -1072745.7899998
S         -1.33036       -1.13093        0.66413
O         -1.58084        0.02049        1.56609
O         -0.82174       -0.72229       -0.66865
O         -2.56841       -1.97982        0.50399
H         -3.26316       -1.40186       -0.75962
C         -0.11560       -2.16174        1.44502
H          0.82219       -1.59855        1.49163
H         -0.48380       -2.41303        2.43991
H          0.00106       -3.06102        0.83951
S          3.33989       -0.82676       -0.28168
O          2.58025       -0.46916        0.94208
O          4.59926       -1.53692       -0.06875
O          3.49893        0.41365       -1.14583
H          3.11043        1.55733       -0.35510
C          2.28651       -1.89529       -1.25251
H          2.20089       -2.84571       -0.72308
H          1.30690       -1.42495       -1.35740
H          2.76483       -2.04907       -2.22032
H          1.62478        4.16925       -0.20342
H          1.88722        3.07839       -1.58791
H         -0.46112        2.89333       -0.71242
H          0.40691        1.36884       -0.53272
H         -0.25066        3.20668        1.62771
H         -0.30844        1.55587        1.57333
H          3.55104        3.04061        0.41403
H          2.35795        2.09371        1.10278
C          1.66792        3.12213       -0.51884
C          0.36339        2.40289       -0.17610
N          2.75787        2.43759        0.21556
N          0.21289        2.37818        1.27314
H         -5.27292        0.52256       -1.91285
H         -5.62005       -0.83919       -0.81210
H         -5.40650        1.38556        0.39888
H         -4.24855        0.17043        0.95593
H         -3.61872        2.63794       -0.28296
H         -2.61371        1.50637        0.40231
H         -3.74734       -1.25885       -2.40936
H         -2.90878       -0.03463       -1.63519
C         -4.88746       -0.07620       -1.08342
C         -4.51983        0.81105        0.11102
N         -3.64524       -0.75144       -1.53442
N         -3.38440        1.65544       -0.24618
