37
2msa1ma1eda_329.log	Energy: -1013356.8219549
S         -1.15602       -2.07215       -0.58035
O         -1.88294       -3.32797       -0.67130
O         -0.05077       -2.10098        0.46325
O         -1.99546       -0.86331       -0.32328
H         -1.35365       -0.15924        1.06374
C         -0.33434       -1.77804       -2.13658
H          0.32068       -2.62600       -2.34014
H         -1.10611       -1.70194       -2.90298
H          0.23906       -0.85120       -2.06979
S          2.35872        0.19312        0.15822
O          1.72189        0.79211        1.34301
O          1.91556        0.70013       -1.13717
O          2.26129       -1.35698        0.21701
H          1.24444       -1.70153        0.28901
C          4.11332        0.41224        0.30685
H          4.30235        1.48577        0.28286
H          4.43674       -0.02041        1.25284
H          4.59031       -0.08351       -0.53821
N         -1.05932        0.43759        1.87333
H         -0.06065        0.65697        1.73077
C         -1.28352       -0.27190        3.14690
H         -0.93215        0.33961        3.97814
H         -2.34853       -0.47490        3.25953
H         -0.73715       -1.21436        3.11498
H         -1.63645        1.29373        1.74470
H         -2.66647        3.08080       -1.45580
H         -2.03777        4.02611       -0.09840
H         -0.17092        2.45358        0.18548
H         -0.86577        1.36412       -1.01776
H          0.17344        4.04014       -1.60272
H          0.77266        2.59540       -2.07785
H         -3.69986        2.66818        0.79411
H         -3.14770        1.32242        0.05619
C         -2.13365        3.01008       -0.49903
C         -0.75037        2.42031       -0.75145
N         -2.85351        2.19450        0.49588
N         -0.08502        3.09229       -1.85877
