42
2msa2eda_451.log	Energy: -1072749.0984306
S         -3.05132       -0.97161        0.69413
O         -4.08351       -1.99170        0.63618
O         -3.33090        0.29211        1.37318
O         -2.57131       -0.65469       -0.77746
H         -2.47774        0.38792       -0.96748
C         -1.59450       -1.69566        1.41726
H         -1.84612       -1.95314        2.44707
H         -1.35079       -2.59741        0.85444
H         -0.76682       -0.98395        1.39739
S          2.64370        0.05118        1.10099
O          1.25582       -0.05142        1.58139
O          2.84478        1.09172        0.06317
O          3.19463       -1.26850        0.62879
H          3.07387       -1.31933       -0.90950
C          3.65077        0.49487        2.50471
H          3.28145        1.44372        2.89482
H          3.55336       -0.29077        3.25411
H          4.68458        0.58890        2.17238
H          1.36324       -2.46695       -3.05884
H          1.38498       -2.82106       -1.30946
H         -0.57025       -1.32724       -1.98604
H          0.48979       -0.58815       -0.79843
H          0.26402        0.17203       -3.58634
H          0.58629        1.09546       -2.24094
H          3.53568       -1.91297       -2.44932
H          2.69723       -0.45628       -2.35124
C          1.46533       -2.03325       -2.06038
C          0.43536       -0.92245       -1.83927
N          2.80996       -1.40584       -1.95080
N          0.76872        0.20351       -2.70843
H         -2.08625        3.76877       -0.48650
H         -2.74988        2.50600        0.58260
H         -0.42336        3.00042        1.18415
H         -0.58112        1.34355        0.62835
H          0.51499        3.54645       -0.95546
H          1.26916        2.18411       -0.45136
H         -3.22841        2.12429       -1.78068
H         -1.61578        1.94673       -2.05441
C         -2.02323        2.70709       -0.20714
C         -0.62564        2.38430        0.29709
N         -2.34969        1.84182       -1.35617
N          0.37034        2.55855       -0.76558
