40
2msa1dma1eda_13.log	Energy: -1038037.1780111
S         -2.27162        1.09703       -0.25655
O         -2.67694        0.04530       -1.21107
O         -1.55657        2.24259       -0.88017
O         -1.49023        0.54257        0.89209
C         -3.77394        1.77061        0.43188
H         -4.35642        2.19566       -0.38581
H         -4.32193        0.96070        0.91426
H         -3.50885        2.54053        1.15655
S          2.84115       -0.77330       -0.19853
O          3.31788        0.21296       -1.17696
O          2.19479       -1.98035       -0.78715
O          1.94533       -0.15931        0.83888
C          4.26865       -1.37617        0.68733
H          4.93449       -1.85051       -0.03403
H          4.76018       -0.52583        1.16042
H          3.93529       -2.09595        1.43483
N          0.98752        2.29632        0.18991
C          1.95461        3.03847       -0.64449
C          0.72535        2.90202        1.51102
H          0.07346        2.22364       -0.30890
H          2.90091        3.12118       -0.10864
H          2.12412        2.47849       -1.56293
H          1.55157        4.02944       -0.86075
H          1.65791        2.94533        2.07582
H          0.32043        3.90629        1.37367
H         -0.00002        2.27190        2.02602
H          1.33955        1.32014        0.35589
H         -0.67657       -3.88835        0.14644
H         -0.41833       -2.87162        1.58926
H         -2.78628       -3.72082        1.38313
H         -2.69217       -1.95533        1.39838
H         -3.95360       -3.38564       -0.51928
H         -3.30452       -1.89512       -0.81405
H          0.54672       -1.93449       -0.47248
H         -1.02988       -1.82025       -1.08687
C         -0.94453       -2.94959        0.63545
C         -2.45874       -2.85072        0.80645
N         -0.47015       -1.84396       -0.22883
N         -3.10127       -2.84293       -0.50343
H         -0.62389       -0.93299        0.24599
