37
2msa1ma1eda_178.log	Energy: -1013362.2754703
S         -1.49633       -1.65179        0.07874
O         -0.78740       -2.27630       -1.04426
O         -2.29761       -0.44972       -0.28174
O         -0.59402       -1.34366        1.24290
C         -2.66421       -2.84364        0.70787
H         -3.36971       -3.07491       -0.09052
H         -2.11121       -3.73563        1.00267
H         -3.17800       -2.40551        1.56336
S          2.40972       -0.28610       -0.27979
O          3.76448        0.17707       -0.06085
O          1.41933        0.65388       -0.81534
O          1.88985       -0.86164        1.09986
H          0.89136       -1.08511        1.08426
C          2.41275       -1.71355       -1.33775
H          2.77928       -1.38689       -2.31191
H          3.08440       -2.45339       -0.90229
H          1.38597       -2.08390       -1.40616
N         -1.33430        2.83958       -2.44193
H         -2.23322        3.21084       -2.73264
C         -1.13337        1.48438       -2.98886
H         -1.18641        1.44439       -4.08313
H         -0.15823        1.11286       -2.66489
H         -1.88648        0.81145       -2.57158
H         -0.62718        3.47307       -2.80194
H         -1.08383        3.52357        1.48879
H         -2.42612        2.35576        1.56157
H         -0.95867        2.11093        3.56709
H         -0.89017        0.66093        2.55218
H          1.25168        2.55608        2.97546
H          1.32462        0.97221        2.51221
H         -1.12195        2.46805       -0.66053
H          0.10867        1.71536        0.20181
C         -1.34163        2.46087        1.47882
C         -0.61400        1.71886        2.60195
N         -0.90974        1.88860        0.18743
N          0.82291        1.84459        2.39926
H         -1.37539        0.96822        0.02298
