40
2msa1dma1eda_284.log	Energy: -1038019.0204348
S         -0.36702       -1.84388       -0.31463
O         -1.64331       -2.54673       -0.18521
O          0.04670       -1.18490        0.98417
O         -0.31836       -0.84125       -1.41631
H         -0.42712        0.76026       -0.86931
C          0.89585       -3.04570       -0.67649
H          0.91317       -3.76835        0.13979
H          0.62559       -3.53296       -1.61379
H          1.85027       -2.52473       -0.77101
S          3.06692        0.40035        0.19027
O          2.53444        1.60801       -0.44257
O          3.32125       -0.75478       -0.66005
O          2.17690        0.00294        1.41931
H          1.29964       -0.52445        1.16900
C          4.56331        0.83487        1.04696
H          5.27257        1.17461        0.29157
H          4.34065        1.63267        1.75480
H          4.93732       -0.05202        1.55726
N         -0.77565        1.72666       -0.66818
C         -0.28019        2.63841       -1.71816
C         -0.42857        2.14244        0.70640
H         -1.83284        1.64666       -0.73431
H          0.80758        2.68292       -1.65985
H         -0.58159        2.24307       -2.68895
H         -0.71417        3.62978       -1.56988
H          0.64732        2.30189        0.77039
H         -0.97018        3.06032        0.94574
H         -0.71738        1.34568        1.39206
H         -4.89140       -0.23787       -0.66063
H         -3.21087       -0.61608       -1.09065
H         -3.69359       -1.34055        1.19185
H         -2.45911       -0.10323        1.18613
H         -5.25955        0.31916        1.93634
H         -3.91954        0.63237        2.80801
H         -3.98377        1.70704       -1.63413
H         -4.01971        1.98489       -0.01514
C         -3.84010        0.01627       -0.45914
C         -3.52377       -0.27478        1.00170
N         -3.56864        1.43713       -0.74789
N         -4.29452        0.62765        1.86636
