40
2msa1dma1eda_429.log	Energy: -1038015.0217248
S          2.56567        0.81797       -0.67819
O          3.53726        1.90489       -0.76905
O          1.78539        0.76341        0.58818
O          3.17233       -0.54437       -0.95463
H          2.67098       -1.57383       -0.07569
C          1.38454        1.03546       -2.00244
H          0.95888        2.03618       -1.91866
H          1.92461        0.94050       -2.94499
H          0.60523        0.27345       -1.92055
S         -2.38499       -0.97118       -0.62233
O         -1.21861       -1.20390       -1.48805
O         -3.06218        0.32966       -0.81185
O         -2.06320       -1.19294        0.83793
H         -2.09565        0.16913        1.61748
C         -3.58234       -2.23546       -1.02154
H         -3.84901       -2.11809       -2.07225
H         -3.12435       -3.20991       -0.85021
H         -4.45675       -2.10035       -0.38498
N          2.32846       -2.31837        0.66775
C          0.85088       -2.23606        0.77502
C          3.03112       -2.01094        1.93171
H          2.60481       -3.23636        0.32475
H          0.60930       -1.23355        1.12090
H          0.40301       -2.36216       -0.21078
H          0.48081       -2.98978        1.47294
H          2.80423       -0.97308        2.18076
H          2.69390       -2.68338        2.72377
H          4.10526       -2.11531        1.77596
H         -0.80142        2.70885        2.55647
H          0.01662        1.22576        1.97030
H         -0.11011        3.10441        0.24899
H         -0.75588        1.55220       -0.27019
H         -2.21422        3.96073       -0.04761
H         -2.72323        2.47255       -0.57728
H         -2.30700        1.00859        3.08821
H         -2.84610        1.69562        1.64882
C         -0.84521        1.88072        1.84441
C         -0.92520        2.39338        0.40459
N         -2.10595        1.12796        2.09934
N         -2.24757        2.97361        0.16742
