42
2msa2eda_341.log	Energy: -1072755.0148157
S          0.50640        2.25895        0.27746
O          1.26850        1.85235        1.46539
O         -0.95311        2.37193        0.46831
O          0.80498        1.36176       -0.91122
C          1.10063        3.86777       -0.21458
H          0.88967        4.56331        0.59817
H          2.17443        3.79530       -0.38908
H          0.57915        4.16525       -1.12424
S          3.11125       -1.16418       -0.33352
O          4.19691       -1.98564       -0.82587
O          1.76969       -1.74605       -0.23254
O          3.04297        0.12584       -1.24722
H          2.18008        0.63545       -1.10212
C          3.53957       -0.49988        1.26042
H          3.57437       -1.33480        1.96165
H          4.52068       -0.03296        1.17252
H          2.77977        0.23316        1.54550
H          0.11238       -0.92453        1.24524
H         -1.49174       -0.20240        1.44928
H         -1.30768       -2.61874        2.28371
H         -2.58205       -2.37027        1.06445
H          0.09248       -3.43360        0.42357
H         -1.34751       -4.23473        0.32820
H         -0.24132       -0.07404       -0.79604
H         -0.82193       -1.65928       -0.97052
C         -0.93359       -0.99264        0.94602
C         -1.49912       -2.38166        1.22804
N         -0.98036       -0.74784       -0.52026
N         -0.90809       -3.32446        0.27961
H         -1.89640       -0.32030       -0.79675
H         -5.75082       -0.03537       -1.18563
H         -5.95429       -0.45800        0.51595
H         -4.83871        1.69936        0.30515
H         -3.77233        0.51686        1.07403
H         -3.59938        1.31276       -1.74525
H         -2.53301        1.67136       -0.54785
H         -5.14565       -2.36949       -0.55271
H         -3.90796       -1.57827       -1.25698
C         -5.20643       -0.33715       -0.27415
C         -4.25772        0.78286        0.12990
N         -4.49217       -1.60413       -0.42742
N         -3.20425        0.97073       -0.87363
