34
2msa1a1eda_247.log	Energy: -988693.8547258
S          1.63493        1.70202       -0.16044
O          0.53400        1.96232        0.80735
O          1.14707        1.20474       -1.46066
O          2.70391        0.83783        0.43184
C          2.42529        3.27613       -0.45338
H          2.81098        3.64940        0.49542
H          3.23544        3.12226       -1.16648
H          1.67958        3.95904       -0.86131
S         -2.84172       -0.21265       -0.19971
O         -2.03450       -1.33539       -0.62744
O         -3.17952       -0.06209        1.21272
O         -4.25858       -0.30271       -0.99661
H         -4.96826       -0.25634       -0.34033
C         -2.17236        1.29578       -0.83514
H         -1.23246        1.48535       -0.30333
H         -1.98051        1.16166       -1.89930
H         -2.89520        2.08969       -0.64807
N         -0.37229       -0.22256        2.64343
H         -0.24896       -0.14005        3.64729
H         -1.36537       -0.36014        2.46528
H         -0.11706        0.67532        2.21995
H          0.23161       -2.70590       -0.08315
H          0.56972       -1.10299       -0.75971
H          1.79438       -2.85497       -2.04108
H          2.89783       -1.73315       -1.23772
H          2.32355       -4.47600       -0.38445
H          3.77284       -3.75283       -0.60096
H          0.76526       -1.21922        1.72737
H          2.11448       -2.26782        1.44189
C          1.01346       -1.96243       -0.25550
C          2.17040       -2.53179       -1.06231
N          1.53411       -1.51679        1.06011
N          2.82109       -3.59654       -0.29181
H          2.12081       -0.65594        0.90959
