26
2msa2a_50.log	Energy: -904638.8582346
S         -2.22678       -0.69019        0.04668
O         -3.15456        0.46266        0.08672
O         -1.53872       -0.96907        1.31823
O         -1.25764       -0.56644       -1.10451
C         -3.21545       -2.12366       -0.34803
H         -3.95183       -2.24945        0.44623
H         -3.70667       -1.95114       -1.30554
H         -2.55689       -2.99090       -0.40078
S          2.77018       -0.10148        0.17959
O          2.21443        1.21194       -0.12183
O          3.81311       -0.22195        1.18134
O          3.38102       -0.66010       -1.21990
H          4.28281       -0.96844       -1.05020
C          1.45508       -1.24428        0.47307
H          0.90705       -0.90977        1.35631
H          0.76914       -1.22610       -0.37804
H          1.89464       -2.22896        0.63037
N         -0.31940        1.94030       -1.23355
H         -0.73844        0.96610       -1.28916
H         -0.87235        2.48325       -0.49996
H          0.65559        1.83377       -0.92589
H         -0.35890        2.40314       -2.13637
N         -1.91250        3.00367        0.78984
H         -2.47976        3.84054        0.70358
H         -1.48022        3.02127        1.70851
H         -2.53416        2.18693        0.75585
