37
2msa1ma1eda_507.log	Energy: -1013349.9096934
S         -1.51431       -1.67050       -0.21756
O         -1.06756       -1.90593       -1.59856
O         -2.49447       -0.54581       -0.08080
O         -0.38845       -1.49751        0.74490
C         -2.41001       -3.12762        0.30057
H         -1.72924       -3.97831        0.25530
H         -2.76856       -2.97226        1.31824
H         -3.24565       -3.26961       -0.38518
S          2.59730        0.01206       -0.53000
O          1.59133        0.91909       -1.08467
O          2.96952        0.13378        0.86510
O          3.94332        0.26732       -1.40073
H          3.72286        0.86509       -2.12945
C          2.21396       -1.66874       -0.91096
H          1.94555       -1.73262       -1.96504
H          3.09231       -2.26733       -0.66875
H          1.34926       -1.92060       -0.28630
N          0.68530        1.19231        2.81154
H          1.51620        0.79868        2.37104
C         -0.01117        0.15354        3.58578
H          0.60777       -0.28423        4.37856
H         -0.90660        0.58390        4.04292
H         -0.31952       -0.63695        2.89737
H          1.00237        1.94214        3.41771
H         -1.96077        3.25700        0.75347
H         -0.37878        3.53967       -0.02097
H         -2.09600        3.84169       -1.68581
H         -1.22454        2.35346       -2.07037
H         -3.75369        2.27870       -2.10778
H         -3.10941        1.13411       -1.12642
H         -0.32132        1.54313        1.39877
H         -1.55007        0.83236        0.43458
C         -1.25287        2.88360        0.01033
C         -1.92792        2.81194       -1.35407
N         -0.78916        1.54652        0.44782
N         -3.21491        2.13945       -1.26146
H         -0.07000        1.19511       -0.19799
