43
2msa1eda1tma_228.log	Energy: -1062672.1668458
S         -0.60527       -2.06255       -0.23350
O         -1.05495       -3.37679        0.21189
O          0.01550       -1.24855        0.87496
O         -1.66011       -1.24956       -0.92148
H         -2.57055       -0.24353       -0.17430
C          0.67414       -2.27179       -1.45338
H          1.46293       -2.88005       -1.00924
H          0.23753       -2.78181       -2.31234
H          1.03808       -1.27948       -1.72525
S          0.44615        2.02572       -0.38705
O         -0.49053        3.05475       -0.81825
O          0.95594        1.07560       -1.37112
O         -0.27269        1.23492        0.78271
H         -0.06974        0.21912        0.77792
C          1.82634        2.77903        0.43315
H          2.39114        3.32377       -0.32449
H          1.44134        3.45697        1.19508
H          2.41732        1.96276        0.86504
H          3.48173       -1.83759       -0.38739
H          5.19214       -1.40501       -0.37034
H          4.36335       -1.57311        1.88273
H          4.83137        0.10429        1.53123
H          2.03881       -0.83686        1.42292
H          2.69793        0.03123        2.63437
H          4.20377       -0.04506       -1.97943
H          2.99824        0.44199       -0.99745
C          4.18745       -1.01403       -0.17585
C          4.09331       -0.67335        1.30581
N          3.97448        0.15928       -1.01325
N          2.76600       -0.15626        1.63944
N         -3.39620        0.27905        0.25899
C         -3.50661        1.60484       -0.39776
H         -2.58224        2.16171       -0.24021
H         -3.64980        1.45112       -1.46760
H         -4.36081        2.14146        0.02262
C         -4.56655       -0.58536       -0.02327
H         -4.66406       -0.70307       -1.10238
H         -4.39437       -1.56377        0.42606
H         -5.46696       -0.12673        0.39217
C         -3.14323        0.39620        1.71567
H         -2.93461       -0.59763        2.11458
H         -2.27474        1.03611        1.86341
H         -4.02613        0.82180        2.19879
