40
2msa1dma1eda_555.log	Energy: -1038002.6272456
S         -1.49273        0.26578        0.47454
O         -0.58891        0.22606       -0.70816
O         -2.19273       -1.00199        0.74260
O         -2.48192        1.39922        0.31917
H         -3.78232        0.82296       -0.15772
C         -0.48734        0.68725        1.87515
H          0.24849       -0.11157        1.98855
H         -0.00129        1.63823        1.64730
H         -1.13512        0.76410        2.74851
S          2.19643       -2.03652       -0.05374
O          2.45667       -3.39256       -0.49749
O          1.43395       -1.81449        1.17063
O          1.49027       -1.25396       -1.24871
H          0.67426       -0.75551       -0.94749
C          3.74462       -1.17267        0.06938
H          4.34019       -1.70872        0.81023
H          4.23100       -1.21367       -0.90580
H          3.56034       -0.14132        0.39344
N         -4.68534        0.31829       -0.50862
C         -5.28707       -0.40349        0.63846
C         -4.29941       -0.57018       -1.63366
H         -5.32325        1.03931       -0.84180
H         -4.52814       -1.08550        1.02403
H         -5.55172        0.32199        1.40791
H         -6.17432       -0.94808        0.30996
H         -3.58673       -1.29990       -1.24760
H         -5.18581       -1.06498       -2.03458
H         -3.81539        0.03127       -2.40336
H          3.55116        3.78828       -0.29610
H          4.34323        2.31267       -0.87164
H          2.33125        2.72703       -2.18503
H          2.13157        1.25108       -1.23437
H          0.84033        3.80906       -0.70484
H          0.19995        2.29387       -0.78444
H          4.08629        2.40134        1.59085
H          2.46368        2.28778        1.36506
C          3.45552        2.69008       -0.35003
C          2.21280        2.33986       -1.16177
N          3.36870        2.05634        0.96315
N          1.00947        2.83235       -0.49074
