40
2msa1dma1eda_351.log	Energy: -1038016.6340665
S          0.93972        2.21503       -0.14728
O          1.66939        3.43406        0.11988
O         -0.48869        2.62609       -0.68739
O          0.75687        1.26761        0.97042
H         -0.50107        0.41432        1.68304
C          1.67045        1.32378       -1.49188
H          2.57650        0.82684       -1.12941
H          0.94860        0.57388       -1.82512
H          1.88875        2.04482       -2.27988
S         -1.92616       -0.73694       -1.09077
O         -1.97556       -1.69598        0.05291
O         -0.71416       -0.84659       -1.91528
O         -2.17159        0.65993       -0.59772
H         -1.12567        1.84154       -0.70412
C         -3.31673       -1.13906       -2.12837
H         -3.17852       -2.15734       -2.49216
H         -4.22675       -1.05802       -1.53428
H         -3.33004       -0.43177       -2.95775
N         -1.19238       -0.19149        2.17356
C         -2.33112        0.64226        2.61361
C         -0.50522       -0.92191        3.25613
H         -1.52297       -0.85941        1.43301
H         -1.97180        1.40806        3.30272
H         -2.76657        1.10170        1.72649
H         -3.06853        0.00867        3.10913
H         -0.13011       -0.20894        3.99184
H         -1.20511       -1.61331        3.72798
H          0.33068       -1.47307        2.82583
H          3.94399       -3.03250        0.19766
H          4.31171       -1.46954        0.96325
H          2.19481       -2.48392        1.74464
H          1.97121       -0.86734        1.03628
H          0.45365       -2.89444        0.33036
H          0.91844       -1.85119       -0.80508
H          4.67172       -1.26640       -1.36382
H          3.17673       -1.81394       -1.71073
C          3.63897       -1.97653        0.26230
C          2.21485       -1.91592        0.80573
N          3.71487       -1.28675       -1.02729
N          1.27551       -2.52529       -0.13324
