41
2msa1dma1tma_23.log	Energy: -1027947.9898424
S         -0.70714        2.19347       -0.14273
O         -2.06173        1.65535       -0.35872
O          0.22303        1.88898       -1.28046
O         -0.10897        1.78900        1.15630
H         -0.37676        0.06830        1.43880
C         -0.84108        3.97051       -0.10661
H         -1.24652        4.29763       -1.06428
H         -1.51166        4.24370        0.70834
H          0.15393        4.38523        0.05484
S          2.53821       -0.45543       -0.00843
O          1.47113       -1.38274       -0.40104
O          2.65809       -0.18258        1.41675
O          2.46215        0.85569       -0.85712
H          1.50720        1.25678       -0.97560
C          4.09272       -1.07940       -0.60703
H          4.29098       -2.01021       -0.07491
H          4.00648       -1.25325       -1.67901
H          4.86314       -0.34007       -0.38923
N         -0.95483       -0.78983        1.55533
C         -2.21258       -0.36943        2.20768
C         -0.21645       -1.83560        2.28869
H         -1.19374       -1.12888        0.56626
H         -1.99077        0.04086        3.19432
H         -2.67337        0.39570        1.58176
H         -2.87323       -1.23368        2.30438
H          0.09788       -1.44588        3.25816
H         -0.86986       -2.69970        2.42871
H          0.65832       -2.11183        1.70324
N         -1.83546       -1.77640       -0.90353
C         -3.27931       -1.55516       -0.88034
H         -3.71559       -2.02427        0.00792
H         -3.47211       -0.47997       -0.84666
H         -3.77182       -1.98144       -1.77053
C         -1.24177       -1.13302       -2.07950
H         -1.46708       -0.06603       -2.05937
H         -0.15877       -1.25653       -2.04717
H         -1.63822       -1.57536       -3.00938
C         -1.51154       -3.19896       -0.87325
H         -0.42539       -3.31960       -0.84731
H         -1.93954       -3.65919        0.02410
H         -1.90805       -3.73054       -1.75480
