30
2msa1eda_105.log	Energy: -953197.0292225
S          2.33125       -1.26761        0.04396
O          2.63172       -0.53911        1.27671
O          3.31572       -2.17795       -0.50155
O          1.99304       -0.14316       -1.06827
H          2.31242        0.75778       -0.70665
C          0.77011       -2.09287        0.19382
H          0.93530       -2.93895        0.86241
H          0.02790       -1.40914        0.61119
H          0.46189       -2.44360       -0.79119
S         -2.75481       -0.39649       -0.04741
O         -2.57137       -1.76611       -0.52770
O         -2.92088        0.63553       -1.10478
O         -1.64678        0.03492        0.90025
H         -0.76384        0.96500        0.06513
C         -4.23765       -0.36784        0.94317
H         -5.07063       -0.64418        0.29603
H         -4.12059       -1.09546        1.74647
H         -4.37521        0.63606        1.34433
H          0.48863        3.46697       -1.10148
H         -0.65647        3.37666        0.24707
H          1.47263        3.60073        1.27825
H          1.02556        1.90281        1.47929
H          2.99252        2.93695       -0.43550
H          3.19056        1.83596        0.76957
H         -1.19872        1.65652       -1.33214
H          0.33684        0.99704       -1.21908
C          0.17018        2.86209       -0.24730
C          1.31259        2.65824        0.74153
N         -0.36130        1.57229       -0.73753
N          2.53490        2.18682        0.07424
