30
2msa1eda_166.log	Energy: -953180.3726363
S         -2.31888       -0.83180       -0.02756
O         -3.11835       -2.03068        0.07682
O         -1.23517       -0.76066       -1.00566
O         -1.71760       -0.55234        1.42206
H         -0.96349        0.08371        1.36629
C         -3.37847        0.57369       -0.28848
H         -3.85136        0.44114       -1.26235
H         -4.12554        0.58856        0.50466
H         -2.76148        1.47348       -0.27855
S          0.77711        2.06871        0.11634
O          0.31929        1.21194        1.20532
O          1.63396        3.19857        0.41555
O         -0.57915        2.66965       -0.56772
H         -0.46597        3.62749       -0.65224
C          1.44016        1.06893       -1.17499
H          2.31182        0.54207       -0.75698
H          0.67062        0.35093       -1.46403
H          1.72099        1.72697       -1.99740
H          3.51844       -3.06225        0.66127
H          3.24057       -1.66963        1.71907
H          1.13123       -2.84785        1.21470
H          1.11303       -1.18550        0.63120
H          1.38252       -3.56603       -1.03052
H          0.34935       -2.30095       -1.17487
H          4.66200       -1.07021       -0.14274
H          3.46792       -1.49251       -1.19180
C          3.06887       -2.05583        0.70881
C          1.56632       -2.16687        0.46814
N          3.65653       -1.12959       -0.26012
N          1.29528       -2.56204       -0.91389
