37
2msa1ma1eda_521.log	Energy: -1013346.4051158
S          1.63838        1.89386        0.09699
O          1.31264        3.30453        0.17725
O          1.24207        1.01282        1.19964
O          3.18940        1.76435       -0.12859
H          3.51232        0.76043       -0.14605
C          0.96084        1.21996       -1.40655
H         -0.12646        1.25570       -1.32494
H          1.31558        1.83048       -2.23716
H          1.28673        0.18234       -1.50884
S         -1.94617       -1.05835       -0.02700
O         -0.86046       -1.66898       -0.78254
O         -3.24206       -1.73664        0.01065
O         -2.16436        0.40486       -0.56001
H         -3.21361        0.62595       -0.65670
C         -1.38403       -0.79046        1.63685
H         -1.15865       -1.76893        2.06329
H         -0.49418       -0.15655        1.60219
H         -2.18709       -0.30730        2.19426
N         -4.66849        0.83450       -0.72975
H         -4.94088        1.61129       -1.32475
C         -5.20687        0.98787        0.63109
H         -6.29622        1.09126        0.64935
H         -4.92480        0.10517        1.20830
H         -4.75776        1.86867        1.09444
H         -5.01972       -0.02141       -1.15240
H          4.34291       -2.52126        0.69009
H          3.77471       -1.17997        1.70531
H          1.96566       -2.82775        1.21002
H          1.59261       -1.19763        0.64274
H          2.36585       -3.44646       -1.05181
H          1.08112       -2.43350       -1.16735
H          5.09423       -0.56465       -0.35017
H          3.76468       -1.03293       -1.20505
C          3.68647       -1.63981        0.71692
C          2.23924       -2.06109        0.47070
N          4.08384       -0.65977       -0.30822
N          2.06406       -2.48721       -0.91632
