34
2msa1a1eda_122.log	Energy: -988703.7802627
S          1.11161        1.94051       -0.19927
O          0.55766        2.47415       -1.43972
O          2.13246        0.86963       -0.37509
O          0.04460        1.47061        0.76805
C          1.94073        3.26680        0.65862
H          2.34435        2.88233        1.59528
H          2.74012        3.62970        0.01205
H          1.21008        4.05408        0.84479
S         -2.69042       -0.43166       -0.03789
O         -2.70729       -1.07977        1.27011
O         -1.87673       -1.07807       -1.07566
O         -2.33146        1.08322        0.08431
H         -1.33377        1.26273        0.32854
C         -4.35137       -0.28592       -0.64531
H         -4.93706        0.26595        0.08922
H         -4.32120        0.23642       -1.60085
H         -4.73555       -1.29913       -0.76601
N          0.24204       -1.22632        2.12490
H          0.80302       -1.60969        2.87680
H         -0.74161       -1.43200        2.28638
H          0.33584       -0.21098        2.11443
H          1.54040       -3.56470       -0.33662
H          1.62571       -2.90847       -1.98962
H          3.86651       -3.13176       -0.87820
H          3.50644       -1.49348       -1.43678
H          4.39298       -1.87745        0.95086
H          3.16137       -0.82377        0.75453
H         -0.07202       -1.64566       -0.94501
H          0.70357       -1.57348        0.53169
C          1.78681       -2.68253       -0.93245
C          3.23343       -2.25855       -0.69471
N          0.86635       -1.59545       -0.52934
N          3.41921       -1.80621        0.68107
H          1.26707       -0.66330       -0.74634
