30
2msa1eda_71.log	Energy: -953202.6343128
S         -2.19549       -0.70343        0.00400
O         -1.68675       -0.54324       -1.35541
O         -2.49533        0.52531        0.74112
O         -1.24720       -1.62946        0.84508
H         -0.28893       -1.22931        0.87879
C         -3.64851       -1.72365       -0.01789
H         -4.41143       -1.17518       -0.57112
H         -3.40603       -2.66088       -0.51766
H         -3.96333       -1.89416        1.01113
S          2.22920       -1.00448        0.05291
O          2.91848       -2.07119        0.76372
O          3.01373        0.18689       -0.31825
O          0.98474       -0.50938        0.82149
H          1.07808        1.09771        0.91814
C          1.54825       -1.69219       -1.44793
H          2.38448       -1.97413       -2.08865
H          0.95747       -2.57028       -1.18462
H          0.91437       -0.94512       -1.92603
H          1.49549        3.75133       -0.39050
H          1.80353        2.12959       -1.08079
H         -0.44939        3.18815       -1.79606
H         -0.59015        1.60130       -1.05004
H         -1.54609        4.07512        0.02544
H         -1.91142        2.51548        0.44360
H          2.14633        2.30057        1.35919
H          0.47653        2.59175        1.47361
C          1.14666        2.71605       -0.43758
C         -0.32374        2.64438       -0.85387
N          1.23444        2.14863        0.93413
N         -1.15816        3.16360        0.22968
