40
2msa1dma1eda_396.log	Energy: -1038011.2983346
S          2.85864       -0.97442       -0.59729
O          3.29551        0.43632       -0.56447
O          1.79778       -1.27931       -1.54968
O          2.49666       -1.45167        0.83425
H          1.69160       -0.85058        1.25343
C          4.28184       -1.97795       -0.93555
H          4.62227       -1.72127       -1.93895
H          5.04697       -1.75327       -0.19334
H          3.97894       -3.02356       -0.88548
S         -0.73084       -0.10137        1.36182
O         -1.59768        0.01538        2.52617
O          0.74799       -0.01472        1.72778
O         -0.99645        0.90321        0.28386
H          0.33311        1.73588       -0.07044
C         -0.95982       -1.70253        0.62615
H         -0.67370       -2.45047        1.36722
H         -2.02514       -1.79448        0.37803
H         -0.32850       -1.77038       -0.26207
N          1.22588        2.28683       -0.22312
C          1.48772        3.08314        0.99466
C          1.12094        3.06907       -1.46913
H          1.98308        1.58463       -0.32938
H          0.68018        3.80415        1.13036
H          1.51421        2.39462        1.83955
H          2.44298        3.60081        0.89198
H          0.30108        3.78320       -1.37881
H          2.05858        3.59782       -1.64862
H          0.92214        2.38233       -2.29205
H         -5.29991        0.42885        0.17926
H         -3.62311        0.46695        0.74992
H         -3.71291        1.39183       -1.48577
H         -2.83619       -0.14083       -1.52058
H         -5.60530        0.24113       -2.41561
H         -4.33456       -0.31139       -3.28421
H         -4.64204       -1.69564        1.16212
H         -4.83480       -1.91109       -0.46032
C         -4.29705       -0.01159        0.03390
C         -3.82616        0.30244       -1.37874
N         -4.26852       -1.45662        0.25042
N         -4.74296       -0.29104       -2.35727
