26
2msa2a_62.log	Energy: -904638.9709039
S         -1.70714        0.01481        0.53577
O         -2.89005       -0.02461        1.38556
O         -0.44383        0.38385        1.28866
O         -1.82453        0.94942       -0.63775
H         -0.68825        1.97396       -0.60266
C         -1.44116       -1.60384       -0.15057
H         -1.31743       -2.30140        0.67904
H         -2.33730       -1.84193       -0.73099
H         -0.54919       -1.57722       -0.77914
S          2.41714       -0.28136       -0.22082
O          2.49218        1.18939       -0.32397
O          1.76895       -0.96825       -1.32743
O          1.78303       -0.68173        1.14956
H          0.81141       -0.28516        1.23714
C          4.06303       -0.90200        0.00116
H          4.61265       -0.67309       -0.91217
H          4.50888       -0.40586        0.86236
H          3.99808       -1.97890        0.15410
N         -4.47185       -0.84595       -1.25036
H         -4.03657       -0.01244       -1.63428
H         -4.61888       -0.66512       -0.26102
H         -5.37532       -0.96827       -1.69312
N          0.13292        2.65773       -0.42286
H          0.14166        3.42089       -1.09363
H          1.02983        2.12873       -0.45482
H          0.01568        3.01860        0.52185
