37
2msa1ma1eda_589.log	Energy: -1013335.5287075
S          2.63095       -0.61010       -0.38271
O          3.80439       -0.60098       -1.22323
O          1.30271       -0.49276       -1.02443
O          2.76689        0.56737        0.66889
H          1.88420        0.96785        0.89632
C          2.60672       -2.06345        0.62845
H          2.56033       -2.91849       -0.04807
H          3.53576       -2.07841        1.19903
H          1.71604       -2.00654        1.27017
S         -0.43840        2.34816        0.12098
O         -0.23079        3.76986       -0.01712
O          0.36279        1.61082        1.11894
O         -0.20852        1.65454       -1.28937
H          0.38715        0.85665       -1.21474
C         -2.14829        2.01893        0.44395
H         -2.37144        2.46164        1.41593
H         -2.72480        2.51513       -0.33782
H         -2.34520        0.94000        0.44345
N         -0.31346       -1.35879        1.80995
H         -0.23287       -0.34652        1.82239
C         -1.17320       -1.82357        2.89231
H         -2.17220       -1.35836        2.91420
H         -1.30742       -2.90656        2.81017
H         -0.69659       -1.62726        3.85718
H         -0.69983       -1.61796        0.90115
H         -3.95286       -2.40414       -1.41105
H         -4.18826       -0.68776       -1.76071
H         -2.19561       -1.49758       -2.90167
H         -1.75619       -0.30067       -1.67962
H         -1.39763       -3.19244       -1.41730
H         -0.26868       -2.00315       -1.33615
H         -4.44714       -1.09424        0.59115
H         -2.92978       -1.69716        0.68624
C         -3.54299       -1.39594       -1.22987
C         -2.14018       -1.31544       -1.81831
N         -3.51836       -1.03649        0.18755
N         -1.23529       -2.23428       -1.12338
