43
2msa1eda1tma_190.log	Energy: -1062673.8613724
S         -1.06760       -0.78877       -0.37156
O         -1.60799       -0.05155       -1.50550
O         -0.75375       -0.02100        0.84662
O          0.18274       -1.61558       -0.81985
H          1.04196       -1.43317       -0.27420
C         -2.21995       -2.05939        0.07358
H         -3.16314       -1.55838        0.32870
H         -2.34452       -2.71032       -0.79229
H         -1.80718       -2.60969        0.91898
S          3.52996       -0.63037        0.21049
O          3.69641       -0.40883       -1.23062
O          2.25473       -1.33514        0.57044
O          3.68480        0.60736        1.03701
H          2.25318        1.36061        1.26271
C          4.83180       -1.72264        0.74631
H          5.78448       -1.23234        0.54543
H          4.70721       -1.90786        1.81297
H          4.74752       -2.64959        0.17888
H          0.20946        3.27432        0.22875
H          1.83026        3.78697        0.75959
H          1.72067        3.37319       -1.72632
H          2.90450        2.35189       -0.90236
H          0.37050        1.41847       -2.00720
H          1.86159        0.67698       -1.91455
H          1.03741        2.07291        2.20742
H          0.62391        1.07552        0.94424
C          1.25430        2.96628        0.32494
C          1.83307        2.53428       -1.02483
N          1.29375        1.80907        1.25920
N          1.20873        1.29998       -1.45201
N         -4.83854       -0.05625        0.35730
C         -5.05807        0.09198       -1.07342
H         -4.10211        0.27085       -1.57279
H         -5.49048       -0.82881       -1.47740
H         -5.74626        0.92633       -1.30791
C         -6.07029       -0.37847        1.05457
H         -6.49811       -1.29931        0.64680
H         -5.86641       -0.53740        2.11785
H         -6.82943        0.42243        0.96491
C         -4.21003        1.12992        0.91555
H         -3.98700        0.96646        1.97420
H         -3.26904        1.32691        0.39557
H         -4.85471        2.02585        0.82881
