37
2msa1ma1eda_549.log	Energy: -1013348.7067075
S         -2.66611        0.25905       -0.82601
O         -3.57176        0.15598       -1.95513
O         -1.73637        1.38527       -0.77236
O         -1.85004       -1.09543       -0.67005
H         -0.87558       -0.98748       -0.89665
C         -3.60563        0.22710        0.68030
H         -4.27253        1.08991        0.65475
H         -4.18062       -0.69881        0.70747
H         -2.88858        0.28787        1.50396
S          1.83718       -1.30072       -0.45458
O          0.66308       -0.95055       -1.29370
O          1.60142       -1.13682        0.99492
O          3.06185       -0.55915       -0.89502
H          3.16415        0.72851        0.03497
C          2.17772       -3.02192       -0.76196
H          1.30299       -3.59520       -0.45314
H          2.36081       -3.14580       -1.82926
H          3.05376       -3.30820       -0.18000
N         -0.87626       -0.27526        2.52095
H         -0.02246       -0.42196        1.98342
C         -1.48963       -1.57776        2.78330
H         -0.85110       -2.27203        3.34765
H         -2.42400       -1.44542        3.33956
H         -1.73699       -2.04517        1.82626
H         -0.59820        0.16337        3.39303
H          2.75411        3.67352        0.20785
H          2.98812        2.66207       -1.24362
H          0.53603        3.31865       -0.86143
H          0.79346        1.58018       -0.90198
H          0.21524        3.17142        1.44757
H         -0.30021        1.68047        1.02679
H          3.96158        1.86130        1.02986
H          2.34220        1.47371        1.32334
C          2.51847        2.71378       -0.26031
C          1.00567        2.48579       -0.32777
N          3.07148        1.62995        0.59787
N          0.51274        2.29381        1.03522
