40
2msa1dma1eda_109.log	Energy: -1038026.4239609
S         -0.98877       -2.11005       -0.53121
O         -0.63384       -3.50761       -0.77098
O         -0.35761       -1.52849        0.70658
O         -2.45980       -1.82112       -0.48178
H         -2.70494       -0.77784        0.67366
C         -0.36771       -1.15299       -1.90350
H          0.70723       -1.31691       -1.99344
H         -0.87809       -1.50118       -2.80218
H         -0.54496       -0.09069       -1.72305
S          1.47707        1.87716       -0.39939
O          0.19603        2.00106       -1.12199
O          2.36175        0.79800       -0.95368
O          1.32390        1.74890        1.06919
H          1.26906       -1.39091        0.82939
C          2.37087        3.39631       -0.69793
H          2.51044        3.50497       -1.77362
H          1.77819        4.22177       -0.30254
H          3.33312        3.33648       -0.18900
N          2.31217       -1.28654        0.74179
C          2.86093       -2.54106        0.19385
C          2.89127       -0.86854        2.03295
H          2.42130       -0.49653        0.04916
H          2.71797       -3.34520        0.91749
H          2.32369       -2.79376       -0.72072
H          3.92351       -2.41133       -0.01874
H          2.67632       -1.62580        2.78948
H          3.97112       -0.75156        1.92144
H          2.44143        0.08884        2.29847
H         -1.99230        1.82695        1.98235
H         -0.99133        0.89273        0.85362
H         -2.17919        2.74404       -0.33685
H         -2.69648        1.17052       -0.92238
H         -4.25185        2.94553        0.79684
H         -4.73554        2.08238       -0.50055
H         -2.43159       -0.49395        2.30296
H         -3.76667        0.22379        1.55609
C         -2.01258        1.17471        1.10441
C         -2.72936        1.84088       -0.05847
N         -2.78316       -0.05109        1.45749
N         -4.13431        2.06079        0.31430
