32
2msa2ma_153.log	Energy: -953958.5526321
S         -1.55375        0.69994       -0.37656
O         -1.44450       -0.38804        0.60081
O         -0.84035        1.94373       -0.06029
O         -3.06145        1.02231       -0.60476
H         -3.69724        0.43263        0.08760
C         -1.00272        0.13324       -1.96174
H          0.06870       -0.07488       -1.85892
H         -1.56585       -0.76563       -2.21429
H         -1.18827        0.92679       -2.68595
S          2.55404       -1.07727       -0.03540
O          3.78822       -1.69589       -0.51228
O          1.91041       -0.12166       -0.98087
O          2.69057       -0.41878        1.31743
H          2.12612        0.98575        1.23871
C          1.36233       -2.38727        0.21703
H          1.22357       -2.89869       -0.73687
H          1.76671       -3.07686        0.95888
H          0.42751       -1.94201        0.56151
N         -4.42445       -0.39730        0.96191
H         -3.87545       -0.41189        1.81854
C         -4.50316       -1.75226        0.38837
H         -5.00741       -2.45999        1.05222
H         -5.04016       -1.70489       -0.56076
H         -3.48514       -2.09743        0.20067
H         -5.34647       -0.03535        1.18839
N          1.74434        1.98920        1.07623
H          0.80164        1.89605        0.65945
C          2.64114        2.71990        0.15235
H          2.23324        3.70958       -0.05644
H          3.62917        2.80354        0.60518
H          2.70589        2.12894       -0.76118
H          1.65086        2.46313        1.97111
