37
2msa1ma1eda_182.log	Energy: -1013361.2305603
S         -0.55051        1.95361       -0.33845
O         -1.46393        3.00832        0.08595
O         -1.17738        0.87507       -1.15298
O          0.18528        1.33104        0.83574
C          0.72178        2.66637       -1.36296
H          1.41108        1.87385       -1.66080
H          0.23317        3.10243       -2.23462
H          1.23013        3.43808       -0.78380
S          2.73353       -0.69447        0.02191
O          2.53392       -0.31185       -1.36917
O          1.94996       -1.84026        0.50673
O          2.53459        0.53581        0.97084
H          1.55940        0.90909        0.89561
C          4.44913       -1.03252        0.32217
H          4.71008       -1.90197       -0.28191
H          5.02711       -0.16090        0.01646
H          4.58046       -1.24205        1.38315
N         -1.83007       -0.25613        2.35154
H         -1.80897       -0.60886        3.30268
C         -3.12868        0.36229        2.05449
H         -3.38093        1.19206        2.72439
H         -3.10979        0.75461        1.03417
H         -3.91738       -0.39291        2.12128
H         -1.09477        0.44678        2.26360
H         -1.25103       -3.06547       -1.37333
H         -1.71485       -3.47663        0.29782
H         -3.72149       -3.09930       -0.98167
H         -3.54940       -1.77577        0.17442
H         -4.10259       -1.18647       -2.23108
H         -2.76274       -0.40520       -1.69763
H          0.11509       -1.84827        0.19829
H         -0.87685       -0.75031       -0.56654
C         -1.70905       -2.68641       -0.45744
C         -3.12717       -2.21043       -0.74735
N         -0.87096       -1.58054        0.06242
N         -3.15586       -1.32260       -1.89885
H         -1.24140       -1.21487        0.98812
