37
2msa1ma1eda_158.log	Energy: -1013360.6958533
S         -1.48963        1.72095       -0.08440
O         -1.10705        2.17081        1.26240
O         -2.68623        0.85913       -0.13368
O         -0.33705        1.04257       -0.80066
C         -1.84184        3.17333       -1.05646
H         -2.07627        2.85709       -2.07290
H         -2.69335        3.67892       -0.60040
H         -0.96076        3.81534       -1.04407
S          2.80951       -0.19052       -0.55178
O          2.95444       -0.17801       -1.99592
O          2.22544       -1.40064        0.05137
O          2.04491        1.07681       -0.03114
H          1.05262        1.11473       -0.34708
C          4.38530        0.08838        0.21752
H          5.01848       -0.75864       -0.04817
H          4.79777        1.01683       -0.17640
H          4.24215        0.14527        1.29601
N         -0.90127       -0.55328        2.51880
H         -1.31479        0.36191        2.33385
C          0.47137       -0.36041        3.00523
H          0.52144        0.17802        3.95896
H          0.96284       -1.33057        3.12122
H          1.02530        0.21337        2.25922
H         -1.47257       -1.01167        3.22144
H         -0.93674       -3.38665       -1.18351
H         -1.14955       -3.61076        0.57217
H         -3.32538       -3.58204       -0.61875
H         -3.20974       -2.22515        0.50573
H         -3.84474       -1.95900       -2.09154
H         -3.08180       -0.76183       -1.25382
H          0.44211       -1.80056       -0.05180
H         -0.80595       -0.95554       -0.70559
C         -1.32935       -2.93588       -0.26962
C         -2.81518       -2.63103       -0.43764
N         -0.58266       -1.68540       -0.01524
N         -3.01382       -1.72981       -1.56338
H         -0.80250       -1.27814        0.95017
