42
2msa2eda_338.log	Energy: -1072753.8426343
S          0.77266       -2.07348       -0.33858
O          0.89241       -1.30942        0.90259
O          2.00199       -2.44102       -1.02628
O         -0.12032       -1.28375       -1.36435
C         -0.18371       -3.53373        0.00340
H         -1.14665       -3.21213        0.40314
H         -0.30846       -4.08450       -0.92866
H          0.37213       -4.12099        0.73462
S         -2.93271        0.00112        0.39450
O         -3.27913        1.20457       -0.38558
O         -1.99997        0.26036        1.51228
O         -2.45202       -1.13033       -0.47826
H         -1.09336       -1.16134       -1.01174
C         -4.44827       -0.61591        1.10249
H         -4.84916        0.15860        1.75670
H         -5.14121       -0.83132        0.28924
H         -4.22112       -1.51867        1.66950
H         -1.38866        2.55551        0.79725
H          0.15024        3.41695        1.05168
H         -1.18246        4.18572       -0.99217
H          0.47119        3.67539       -1.36874
H         -1.89888        1.96459       -1.71938
H         -0.85167        2.49820       -2.89669
H         -0.06030        0.77128        1.00479
H          0.11297        1.05275       -0.61488
C         -0.39717        2.74662        0.38562
C         -0.50897        3.31821       -1.03033
N          0.31189        1.44483        0.32267
N         -0.94024        2.25059       -1.92013
H          1.35372        1.57275        0.41445
H          5.05023        1.81610        1.09326
H          3.72484        1.60862        2.25301
H          4.72298       -0.57603        1.57555
H          3.01148       -0.46171        1.15947
H          5.22835       -0.46477       -0.70158
H          3.71272       -1.09423       -0.84515
H          3.22631        3.10684        0.32362
H          3.32507        1.77067       -0.63060
C          4.02712        1.42994        1.21572
C          4.00306       -0.06936        0.91796
N          3.08613        2.10141        0.30701
N          4.24857       -0.30089       -0.50438
