41
2msa1dma1tma_78.log	Energy: -1027940.7319487
S         -0.64204        1.72824        0.40224
O         -0.95037        1.36613       -0.99149
O          0.77990        2.10760        0.62870
O         -1.10566        0.68845        1.37322
C         -1.57593        3.19150        0.80824
H         -1.25828        3.98848        0.13570
H         -2.63404        2.96821        0.66687
H         -1.36910        3.45358        1.84564
S          3.19784       -0.21053       -0.37405
O          2.44062       -1.00206       -1.33972
O          3.09664       -0.61419        1.02598
O          2.88602        1.31974       -0.53722
H          2.00494        1.59729       -0.09229
C          4.90581       -0.19508       -0.86321
H          5.25498       -1.22727       -0.82351
H          4.96974        0.19591       -1.87829
H          5.46068        0.42956       -0.16407
N         -3.41117       -0.41431       -0.97716
C         -4.27848        0.20998        0.00943
C         -4.08732       -0.66988       -2.23863
H         -2.60977        0.19627       -1.13673
H         -5.07732       -0.48456        0.29746
H         -3.69339        0.44971        0.90246
H         -4.75924        1.13496       -0.35502
H         -4.87300       -1.42104       -2.09503
H         -4.55714        0.22898       -2.67346
H         -3.37268       -1.06469       -2.96672
N         -0.82283       -1.90359        0.80496
C          0.30074       -2.27693        1.69989
H          1.20007       -1.73614        1.39958
H          0.03776       -2.00156        2.72187
H          0.46571       -3.35473        1.62951
C         -2.10385       -2.52455        1.21775
H         -2.32542       -2.22292        2.24244
H         -2.87644       -2.16028        0.53622
H         -2.00683       -3.61158        1.15976
C         -0.51559       -2.18732       -0.62126
H         -1.36651       -1.85604       -1.21549
H          0.38887       -1.64922       -0.90820
H         -0.36089       -3.26324       -0.73620
H         -0.94678       -0.85954        0.91292
