42
2msa2eda_430.log	Energy: -1072750.4204612
S          2.72644       -0.13736       -0.50563
O          2.20732       -1.29199       -1.23969
O          2.65535       -0.19996        0.95254
O          2.09855        1.19102       -1.04185
H          1.05482        1.20029       -0.92948
C          4.41697        0.12798       -0.98354
H          4.97801       -0.74893       -0.65933
H          4.45697        0.23706       -2.06683
H          4.77886        1.02593       -0.48364
S         -1.37423        2.07848       -0.34671
O         -1.48050        3.16857       -1.30880
O         -0.34455        1.03505       -0.72398
O         -2.65259        1.36755       -0.04812
H         -2.77207       -0.23129       -0.37954
C         -0.80140        2.75887        1.19961
H         -0.64326        1.95579        1.92346
H          0.13753        3.27831        1.00178
H         -1.55546        3.46450        1.55022
H         -3.05108       -2.81784       -1.87753
H         -3.14204       -1.18228       -2.56431
H         -0.96930       -2.00742       -3.09615
H         -0.76472       -0.78713       -1.83870
H         -0.44440       -3.65864       -1.52316
H          0.51754       -2.42224       -1.04572
H         -4.01482       -1.32433       -0.31559
H         -2.52394       -1.76729        0.33430
C         -2.64979       -1.80168       -1.80991
C         -1.14252       -1.79449       -2.03159
N         -3.01119       -1.25812       -0.47359
N         -0.45272       -2.72072       -1.13518
H          0.89551       -1.83876        2.77616
H         -0.29036       -1.41445        4.02461
H         -1.68867       -0.26549        2.34901
H         -0.49459       -0.57388        1.09484
H         -0.94859       -2.84577        1.15175
H         -1.90868       -2.73492        2.50259
H          1.25043        0.28429        4.16325
H          1.42474        0.41785        2.54547
C          0.15987       -1.07754        3.08191
C         -0.92719       -0.97951        2.01616
N          0.74692        0.24414        3.28457
N         -1.58616       -2.24603        1.67324
