42
2msa2eda_593.log	Energy: -1072740.0831714
S          2.62334        0.06230       -0.54992
O          2.90832        0.47197        0.83781
O          1.20706        0.25050       -0.94113
O          3.04709       -1.35455       -0.83369
H          1.74902       -2.21546       -0.57704
C          3.61463        1.08687       -1.61845
H          3.32815        2.12352       -1.43700
H          4.66342        0.92578       -1.36844
H          3.41413        0.80533       -2.65214
S         -2.55403       -0.77047       -0.79443
O         -3.91962       -0.99317       -1.22098
O         -1.67439       -1.96338       -0.72747
O         -2.54594       -0.10340        0.63924
H         -2.02666       -0.67702        1.32070
C         -1.79316        0.46757       -1.80290
H         -2.00332        0.19805       -2.83883
H         -2.21505        1.44292       -1.54350
H         -0.72071        0.47029       -1.60015
H          0.84432       -3.51927        1.87001
H          2.18225       -2.39219        1.53364
H          0.73251       -1.05926        2.82057
H          0.36999       -0.59147        1.17707
H         -1.43465       -2.53309        1.56723
H         -1.32123       -1.93832        3.09380
H          1.00842       -3.73067       -0.39461
H          0.03876       -2.37429       -0.44547
C          1.12051       -2.58714        1.36998
C          0.29142       -1.41806        1.88921
N          0.94605       -2.75596       -0.11042
N         -1.13177       -1.73344        2.11910
H         -1.51653        4.03852        1.64083
H         -2.46598        2.62336        1.15094
H         -0.51181        1.84422        2.31305
H         -0.35372        1.42482        0.59788
H          1.07127        3.60510        1.90984
H          1.68128        2.29382        1.13152
H         -2.07943        4.33392       -0.64318
H         -0.52118        3.82219       -0.66215
C         -1.53410        3.16733        0.96237
C         -0.35842        2.25961        1.30239
N         -1.47643        3.54163       -0.45080
N          0.91249        2.96053        1.14198
