34
2msa1a1eda_80.log	Energy: -988707.0689770
S         -0.80783       -1.78371       -0.09107
O         -2.25066       -1.54121        0.07663
O         -0.03249       -1.77845        1.16546
O         -0.22196       -0.81895       -1.10299
C         -0.61271       -3.39551       -0.82566
H         -1.02186       -4.12937       -0.13094
H         -1.15667       -3.40883       -1.77003
H          0.45109       -3.57058       -0.98833
S          2.82762        0.68052       -0.11009
O          1.80661        1.70020        0.15623
O          4.15504        1.11021       -0.49021
O          2.30950       -0.29384       -1.24408
H          1.32452       -0.50611       -1.15970
C          2.91790       -0.37265        1.31973
H          3.22218        0.25283        2.15992
H          1.93303       -0.81792        1.48363
H          3.66715       -1.13899        1.12071
N         -1.43074        0.68212        2.44174
H         -2.43920        0.57913        2.50766
H         -1.09466        1.11600        3.29454
H         -1.01933       -0.24889        2.36482
H         -2.27140        3.32333        0.06109
H         -1.63182        3.04658       -1.57849
H         -4.01405        2.43053       -1.41099
H         -3.01246        1.04102       -1.83842
H         -4.79013        0.93988        0.08724
H         -3.38330        0.11824        0.22231
H         -0.03758        2.14175       -0.07345
H         -1.18299        1.38758        0.88643
C         -2.02648        2.56101       -0.68197
C         -3.26318        1.73578       -1.02231
N         -0.96398        1.70263       -0.11116
N         -3.78627        1.05318        0.15679
H         -0.81374        0.83387       -0.65818
