42
2msa2eda_217.log	Energy: -1072756.8160377
S         -1.74856       -1.09575       -1.11020
O         -1.94952       -1.81724        0.15677
O         -0.39256       -1.31195       -1.70585
O         -2.06875        0.35811       -1.01241
C         -2.89273       -1.76588       -2.30107
H         -2.68597       -2.83117       -2.40419
H         -3.90266       -1.60261       -1.92460
H         -2.74327       -1.25065       -3.24984
S          2.42440       -1.05923        0.31878
O          1.54817       -0.27715        1.19579
O          3.26482       -0.30950       -0.60263
O          1.60271       -2.17081       -0.42177
H          0.77590       -1.80967       -0.92012
C          3.44683       -2.10146        1.33089
H          4.08441       -1.44202        1.92032
H          2.80147       -2.69737        1.97525
H          4.04613       -2.73383        0.67634
H         -1.21909        1.96521        3.21310
H         -2.37488        2.50397        1.96653
H         -3.30163        0.68393        3.42617
H         -3.24340        0.22065        1.72073
H         -2.13699       -1.21518        3.73995
H         -1.68871       -1.32993        2.16196
H         -0.14611        2.16756        1.01742
H         -0.16597        0.57253        1.55244
C         -1.76657        1.66528        2.31620
C         -2.62489        0.43463        2.60267
N         -0.77489        1.35128        1.26656
N         -1.77251       -0.69513        2.95333
H         -1.25621        1.05164        0.39333
H          2.22647        3.63892       -1.31710
H          2.50440        2.28842       -0.19722
H          1.60975        1.54894       -2.41206
H          0.63648        1.04352       -1.05739
H         -0.11965        2.95760       -3.06895
H         -1.03192        1.91995       -2.17191
H          1.30455        4.12702        0.86037
H          0.09798        3.95571       -0.24975
C          1.73143        2.86267       -0.71478
C          0.94312        1.92375       -1.62653
N          0.81616        3.45734        0.27514
N         -0.26112        2.58094       -2.13954
