43
2msa1eda1tma_260.log	Energy: -1062667.6587237
S          3.42310       -1.34760       -0.08010
O          4.47198       -2.33396       -0.19940
O          3.67443        0.00280       -0.61900
O          3.05497       -1.18080        1.44612
H          2.70331       -0.23749        1.64788
C          1.92264       -1.96988       -0.79642
H          1.74314       -2.95515       -0.36553
H          1.08928       -1.29529       -0.57510
H          2.08690       -2.04349       -1.87220
S         -1.19628        0.70278       -1.04132
O         -1.57193        1.96275       -0.37049
O         -0.88558       -0.40112       -0.09931
O         -0.04538        0.91650       -1.99781
H          1.08692        1.59501       -1.25121
C         -2.56639        0.18218       -2.04702
H         -3.40465       -0.03266       -1.37353
H         -2.80451        0.99051       -2.73873
H         -2.26620       -0.71502       -2.58956
H          2.17017        3.47862        0.84011
H          0.51293        3.34973        0.19296
H          0.42929        2.46423        2.34100
H          0.27743        1.09360        1.24675
H          2.85273        1.80793        2.50134
H          1.79522        0.75092        3.13430
H          2.31395        2.74880       -1.36518
H          2.61340        1.35450       -0.52378
C          1.39563        2.78407        0.49788
C          0.97631        1.84682        1.61900
N          1.89869        2.08458       -0.71484
N          2.11424        1.15224        2.25496
N         -4.53548       -0.83515        0.45812
C         -4.08870        0.10067        1.47752
H         -3.01177        0.25840        1.38329
H         -4.58598        1.06510        1.33887
H         -4.30753       -0.26318        2.50088
C         -5.97131       -1.03243        0.51182
H         -6.48269       -0.07359        0.38333
H         -6.28648       -1.69991       -0.29623
H         -6.30333       -1.47468        1.47191
C         -3.81800       -2.09569        0.55651
H         -4.13698       -2.76616       -0.24832
H         -2.74483       -1.91159        0.45340
H         -4.00006       -2.60761        1.52173
