34
2msa1a1eda_242.log	Energy: -988698.0932196
S         -2.51854        0.82887        0.09037
O         -3.84359        1.39797       -0.01238
O         -1.36528        1.70892       -0.17795
O         -2.45937       -0.40434       -0.89348
H          0.49110        0.08522       -1.76899
C         -2.27505        0.11012        1.69529
H         -2.32338        0.92436        2.41953
H         -3.08021       -0.60515        1.86386
H         -1.29701       -0.38033        1.71564
S          0.51455       -2.19475        0.00889
O         -0.16884       -3.47240        0.15987
O          0.62126       -1.36463        1.22850
O         -0.07768       -1.36556       -1.13163
H         -1.54073       -0.83808       -0.94446
C          2.18626       -2.51294       -0.53730
H          2.65819       -3.14996        0.21162
H          2.14247       -3.02561       -1.49837
H          2.71814       -1.56258       -0.61175
N          0.55192        1.09386       -2.05060
H         -0.22020        1.54660       -1.52834
H          0.41241        1.19169       -3.05185
H          1.48526        1.51189       -1.73380
H          3.25593        3.28682        0.80491
H          1.65874        3.51690        0.07189
H          1.54244        2.16252        2.15587
H          0.94670        1.27135        0.76501
H          3.46433        0.79496        2.13403
H          2.30698       -0.25192        1.59753
H          3.45933        2.77811       -1.49694
H          3.45937        1.34655       -0.68238
C          2.42881        2.77142        0.29607
C          1.85222        1.69263        1.21215
N          2.88065        2.14229       -0.95732
N          2.81293        0.60438        1.38048
