35
2msa1ma1dma_216.log	Energy: -978618.3410049
S         -2.08475        1.11284       -0.16948
O         -1.08604        2.10805        0.21348
O         -2.84426        0.50682        0.96595
O         -1.52071        0.00955       -1.03352
H         -0.06542       -0.14376       -1.21437
C         -3.30965        1.91706       -1.18382
H         -2.80186        2.34964       -2.04595
H         -4.04371        1.17511       -1.49708
H         -3.77833        2.69669       -0.58287
S          1.43164       -1.49911       -0.39903
O          0.94758       -0.33092       -1.32292
O          1.11462       -2.79817       -0.97753
O          0.93445       -1.28231        0.97656
H         -0.67591       -1.63728        1.37884
C          3.17157       -1.19701       -0.40870
H          3.52197       -1.29930       -1.43605
H          3.32781       -0.18022       -0.01672
H          3.62430       -1.95620        0.23033
N         -1.69256       -1.84668        1.50061
H         -1.84053       -2.21127        2.43849
C         -2.13232       -2.79985        0.45215
H         -3.18018       -3.05244        0.61331
H         -2.01328       -2.29974       -0.50838
H         -1.50765       -3.69206        0.48325
H         -2.20079       -0.92265        1.39185
N          3.08801        1.88696        0.63909
C          2.07585        1.92757        1.69120
C          2.67728        2.63091       -0.54663
H          3.95624        2.27459        0.99397
H          1.14658        1.49573        1.31202
H          2.41009        1.33252        2.54590
H          1.84925        2.95065        2.03400
H          1.77992        2.16521       -0.96241
H          2.44372        3.68847       -0.33937
H          3.46794        2.58849       -1.30183
