32
2msa2ma_128.log	Energy: -953959.8269846
S         -1.96764       -1.08151        0.35061
O         -3.26918       -1.54216        0.77733
O         -0.88736       -2.06924        0.93306
O         -1.58108        0.29915        0.72151
H         -0.21936        1.03400        1.38472
C         -1.79746       -1.22389       -1.40860
H         -2.16868       -2.20800       -1.69443
H         -2.38400       -0.41567       -1.85388
H         -0.73883       -1.10637       -1.65442
S          2.13902       -0.48074       -0.28292
O          2.43558        0.97142       -0.09625
O          1.41698       -0.79991       -1.51843
O          1.45120       -1.00857        0.94842
H          0.05152       -1.68042        0.89044
C          3.71779       -1.30141       -0.35333
H          4.26119       -0.90225       -1.20992
H          4.25390       -1.10335        0.57450
H          3.53539       -2.36897       -0.47722
N          0.56071        1.65056        1.70129
H          0.91265        1.26351        2.57499
C          0.10620        3.04944        1.83365
H          0.94492        3.68346        2.12083
H         -0.28269        3.37331        0.86849
H         -0.68406        3.10896        2.58173
H          1.33032        1.52574        0.98649
N         -2.08461        2.07116       -1.71260
H         -2.59654        2.91041       -1.95737
C         -0.65497        2.21734       -1.96634
H         -0.17104        3.05959       -1.44361
H         -0.13257        1.30110       -1.67914
H         -0.48505        2.35863       -3.03726
H         -2.26027        1.85594       -0.73635
