34
2msa1a1eda_143.log	Energy: -988704.6804815
S         -0.11657       -2.16893       -0.14564
O         -0.28455       -1.09958       -1.17298
O         -1.34829       -2.44175        0.60662
O          1.04815       -1.86890        0.75357
C          0.33166       -3.65138       -1.02859
H          0.47355       -4.44624       -0.29609
H         -0.48019       -3.89739       -1.71316
H          1.25628       -3.46123       -1.57387
S          2.15607        1.39805       -0.14543
O          3.18783        2.39700        0.04516
O          0.83665        1.62429        0.45274
O          2.73382        0.02336        0.36932
H          2.02509       -0.69750        0.48715
C          1.92162        1.11541       -1.88606
H          1.53664        2.04240       -2.31364
H          2.89046        0.86925       -2.32058
H          1.20410        0.29900       -1.99551
N         -0.27110        0.09084        2.76598
H         -0.50577       -0.01622        3.74649
H          0.41382        0.83587        2.66746
H          0.18089       -0.76713        2.44650
H         -2.72942        2.29454        1.21183
H         -1.33819        2.45180        0.12146
H         -3.45215        3.03430       -1.07756
H         -2.73238        1.57477       -1.76341
H         -5.07535        1.65250       -0.01549
H         -4.87248        0.86067       -1.43434
H         -1.37252        0.35620        1.47157
H         -2.74308       -0.09022        0.55429
C         -2.26161        1.90117        0.30422
C         -3.22581        1.97898       -0.87337
N         -1.90097        0.49200        0.55327
N         -4.40114        1.15790       -0.58924
H         -1.28290        0.11304       -0.18875
