41
2msa1dma1tma_115.log	Energy: -1027938.6462829
S          1.61693       -0.74315        0.66024
O          1.25371       -1.56644       -0.49957
O          1.47775        0.72105        0.43678
O          3.02662       -1.04863        1.14166
H          3.96077       -0.52525        0.19362
C          0.56894       -1.19528        2.02251
H         -0.47260       -1.02042        1.72986
H          0.73420       -2.25360        2.22629
H          0.84937       -0.59089        2.88597
S         -2.85379       -1.07491       -0.35640
O         -4.27578       -1.31035       -0.61421
O         -2.51148       -0.76911        1.05853
O         -2.25908       -0.01177       -1.25491
H         -1.83688        1.15908       -0.40654
C         -1.96864       -2.56365       -0.78863
H         -2.31562       -3.36019       -0.12896
H         -2.20253       -2.80080       -1.82708
H         -0.89875       -2.38088       -0.66910
N          4.59084       -0.01513       -0.57509
C          4.66132        1.41319       -0.19239
C          3.96353       -0.24383       -1.89945
H          5.51822       -0.43497       -0.55427
H          3.63480        1.76619       -0.07414
H          5.17906        1.49686        0.76343
H          5.18745        1.98492       -0.95991
H          2.96553        0.19492       -1.88074
H          4.57080        0.21347       -2.68342
H          3.86137       -1.31649       -2.06115
N         -1.72955        2.14855        0.03198
C         -1.30426        2.03803        1.44687
H         -1.98180        1.34597        1.94736
H         -0.28957        1.63921        1.46495
H         -1.33538        3.03079        1.90610
C         -0.72985        2.85729       -0.79461
H          0.21757        2.32418       -0.70130
H         -1.06478        2.84365       -1.83293
H         -0.62859        3.88875       -0.44467
C         -3.08311        2.73442       -0.08607
H         -3.38728        2.70641       -1.13263
H         -3.77241        2.12281        0.49742
H         -3.07343        3.76233        0.28661
