41
2msa1dma1tma_06.log	Energy: -1027960.1883127
S         -2.82969        0.06956       -0.10004
O         -3.09354        1.31639        0.64289
O         -3.14224       -1.18049        0.61881
O         -1.42415        0.05226       -0.64558
C         -3.88726        0.10287       -1.54217
H         -4.92201        0.12342       -1.19854
H         -3.65844        0.99901       -2.11982
H         -3.69676       -0.79381       -2.13241
S          2.72366       -0.52036       -0.20869
O          2.49531       -1.98975       -0.15132
O          2.83727        0.11858        1.12025
O          1.71652        0.16048       -1.07357
C          4.30211       -0.31727       -1.01853
H          4.51021        0.74997       -1.10278
H          5.06065       -0.80896       -0.40923
H          4.24212       -0.77651       -2.00526
N         -0.20435       -2.23095        0.19167
C         -0.96674       -3.37222       -0.35109
C         -0.25788       -2.12214        1.66674
H          0.80005       -2.27218       -0.08552
H         -2.01645       -3.23904       -0.08553
H         -0.85365       -3.38167       -1.43569
H         -0.57413       -4.30094        0.06702
H         -1.29289       -1.94455        1.96122
H          0.12712       -3.04322        2.10755
H          0.38005       -1.29013        1.96835
H         -0.59666       -1.34244       -0.21111
N          0.46285        2.29413        0.16478
C          0.11174        1.97064        1.57423
H         -0.86607        1.48943        1.58158
H          0.88952        1.31214        1.96441
H          0.07251        2.90218        2.14363
C          1.77898        2.97760        0.08434
H          2.52139        2.34419        0.57031
H          2.03421        3.11646       -0.96635
H          1.70169        3.94444        0.58656
C         -0.60161        3.08573       -0.50301
H         -0.37088        3.14983       -1.56686
H         -1.55923        2.59117       -0.34402
H         -0.61618        4.08434       -0.06001
H          0.58131        1.38657       -0.33799
