40
2msa1dma1eda_378.log	Energy: -1038015.6627508
S         -0.46087        1.90595       -0.49954
O         -1.89343        2.27211       -0.69393
O          0.17262        1.25972       -1.65314
O         -0.31109        1.10489        0.76820
H          0.12858       -0.35226        0.77890
C          0.39534        3.43749       -0.19472
H          0.28859        4.06135       -1.08233
H         -0.05344        3.91796        0.67437
H          1.44479        3.20528       -0.01155
S         -0.30451       -2.30782       -0.12314
O         -0.07849       -3.65570        0.34751
O          0.40411       -1.32813        0.89575
O         -1.70217       -1.86542       -0.29767
H         -2.63411       -0.54849        0.20612
C          0.54831       -2.02777       -1.65152
H          1.61155       -2.21609       -1.47184
H          0.13134       -2.72469       -2.37969
H          0.37596       -0.98894       -1.94434
N         -3.26530        0.24146        0.45552
C         -3.24804        0.41366        1.92366
C         -4.59905       -0.00507       -0.12630
H         -2.82457        1.08432        0.00519
H         -3.60252       -0.50234        2.39871
H         -2.21975        0.62333        2.21841
H         -3.89304        1.25103        2.19486
H         -5.01921       -0.91642        0.30171
H         -5.24992        0.84342        0.09016
H         -4.49087       -0.12196       -1.20437
H          4.05928        0.14103       -1.30198
H          2.34225        0.21111       -0.93885
H          3.44543        2.04207        0.18576
H          2.84266        0.89740        1.39611
H          5.64224        1.12964        0.54606
H          5.03059        1.35087        2.04779
H          4.27406       -1.57502        0.35724
H          2.67134       -1.55148        0.64421
C          3.32339        0.00275       -0.49842
C          3.58915        1.03046        0.60426
N          3.37319       -1.39111       -0.07435
N          4.91465        0.82964        1.18693
