25
2msa1ma_90.log	Energy: -893785.4613363
S          2.08754       -0.83439        0.09468
O          2.91108       -2.02337        0.14048
O          1.08115       -0.60745        1.13151
O          1.33564       -0.84906       -1.32174
H          0.45644       -0.41646       -1.24554
C          3.11299        0.60744       -0.03080
H          3.64798        0.69895        0.91556
H          3.80970        0.45222       -0.85460
H          2.44405        1.45801       -0.20346
S         -2.28553       -0.39853       -0.14427
O         -1.28335        0.02724       -1.11279
O         -3.67820       -0.47044       -0.54067
O         -2.18833        0.64218        1.09604
H         -3.08389        0.94640        1.30430
C         -1.75698       -1.90875        0.61573
H         -1.69748       -2.65499       -0.17815
H         -0.77553       -1.73125        1.06219
H         -2.50228       -2.19162        1.35868
N          0.40911        2.43655       -0.14937
H         -0.27167        2.24068       -0.87552
C          0.49788        3.86999        0.11482
H         -0.44218        4.33479        0.44702
H          1.25289        4.05100        0.88587
H          0.82769        4.38533       -0.79158
H          0.09105        1.93287        0.67325
