34
2msa1a1eda_62.log	Energy: -988708.4819087
S         -3.15492       -0.37309        0.13650
O         -3.37261        0.96361        0.71051
O         -2.93266       -1.47368        1.08917
O         -2.02055       -0.31970       -0.88212
C         -4.60544       -0.79119       -0.81415
H         -5.44790       -0.83709       -0.12333
H         -4.76517       -0.01624       -1.56381
H         -4.44297       -1.76006       -1.28624
S          2.80479       -0.81041       -0.18337
O          3.05317        0.40048       -0.98175
O          2.27807       -1.97062       -0.93911
O          1.93081       -0.51723        1.01343
C          4.37742       -1.31931        0.49276
H          5.03980       -1.55123       -0.34170
H          4.78058       -0.49730        1.08461
H          4.21878       -2.20125        1.11340
N         -0.20972       -2.03823        0.29535
H         -0.85353       -2.53247        0.91170
H          0.46296       -1.43095        0.81844
H          0.39223       -2.64087       -0.27230
H         -0.79958       -1.43246       -0.31480
H          0.89195        1.32440       -1.25143
H          0.32775        2.87393       -1.90684
H          2.41867        2.91440       -0.38499
H          1.13741        4.05231        0.10041
H          1.64718        1.42820        1.33168
H          1.57990        2.91399        2.06465
H         -1.31575        1.17520       -0.64321
H         -0.61193        1.96994        0.68032
C          0.47015        2.29719       -0.99240
C          1.39951        2.99182        0.00904
N         -0.84174        2.05995       -0.33112
N          1.20987        2.35330        1.30813
H         -1.50699        2.82448       -0.42576
