34
2msa1a1eda_297.log	Energy: -988690.3437036
S         -2.48773       -0.81186       -0.17843
O         -3.48353       -0.31966        0.79442
O         -1.16533       -1.09874        0.44047
O         -2.33133        0.08142       -1.36688
C         -3.10886       -2.35866       -0.81780
H         -3.22503       -3.05012        0.01726
H         -4.07115       -2.16711       -1.29292
H         -2.38998       -2.74074       -1.54302
S          2.31399       -1.35189        0.00353
O          2.09849       -1.95320       -1.29869
O          2.07911        0.07392        0.19389
O          3.87375       -1.60073        0.39218
H          4.29507       -2.05442       -0.35203
C          1.49288       -2.25442        1.28393
H          0.42210       -2.06897        1.14228
H          1.74407       -3.30816        1.16493
H          1.84224       -1.86645        2.24086
N         -1.84653        1.91760        1.97105
H         -1.39192        1.57299        2.81103
H         -2.55296        1.21937        1.71036
H         -2.33200        2.77396        2.21840
H          0.44316        2.72373       -2.04719
H         -0.93753        3.47030       -1.22580
H          1.04155        4.76894       -0.69244
H          0.50969        3.94816        0.76512
H          2.31420        2.37773        0.47598
H          2.77728        3.11071       -0.91065
H         -1.02312        1.09126       -0.95469
H          0.49927        1.05702       -0.26831
C          0.00588        2.93988       -1.06810
C          0.96146        3.78406       -0.22011
N         -0.32224        1.65604       -0.41392
N          2.30062        3.25764       -0.02789
H         -0.78547        1.81340        0.52384
