40
2msa1dma1eda_251.log	Energy: -1038019.9463125
S         -2.42321        0.08713       -0.75107
O         -2.69485        1.22751        0.12990
O         -2.78541       -1.23828       -0.21285
O         -0.96981        0.07319       -1.21258
C         -3.35706        0.32497       -2.25174
H         -3.12656       -0.49172       -2.93574
H         -4.41515        0.32121       -1.98846
H         -3.07245        1.28514       -2.68245
S          1.28046        2.08595        0.50807
O          2.21846        3.18765        0.53261
O          1.79792        0.73124        0.75113
O          0.56413        2.11497       -0.89915
H         -0.07408        1.33411       -1.02208
C         -0.03731        2.37738        1.66344
H         -0.79631        1.60156        1.54112
H          0.40618        2.34667        2.65933
H         -0.45755        3.36010        1.45096
N          2.74236       -2.05969       -1.26244
C          3.91225       -1.66156       -0.47461
C          2.39418       -1.06207       -2.27965
H          2.92675       -2.94948       -1.71531
H          3.67247       -0.74302        0.06837
H          4.15174       -2.44478        0.24965
H          4.79838       -1.47432       -1.09814
H          2.14774       -0.12116       -1.78055
H          3.21439       -0.87270       -2.98636
H          1.51316       -1.39320       -2.83516
H         -1.15718       -2.95265        0.37333
H          0.34417       -3.69027        0.98548
H         -1.36149       -3.21124        2.77199
H          0.20558       -2.44414        3.06264
H         -2.08028       -1.02246        1.87902
H         -1.45154       -0.78864        3.38709
H         -0.10741       -1.10055       -0.25594
H          0.83061       -0.99284        1.05591
C         -0.27089       -2.78687        0.98861
C         -0.67950       -2.42498        2.41453
N          0.49521       -1.67724        0.36835
N         -1.23319       -1.07941        2.44197
H          1.32857       -1.98213       -0.20763
