37
2msa1ma1eda_539.log	Energy: -1013348.9088911
S         -1.72984       -1.51503        0.12893
O         -1.12945       -1.81957       -1.18392
O         -2.69005       -0.36640        0.07993
O         -0.72787       -1.31823        1.21011
C         -2.71482       -2.93210        0.59058
H         -2.05521       -3.79860        0.64712
H         -3.17613       -2.73335        1.55794
H         -3.47516       -3.07934       -0.17687
S          2.62905       -0.28343       -0.53985
O          1.58670        0.72495       -0.74141
O          3.64776       -0.06831        0.46253
O          3.40046       -0.41236       -1.96100
H          2.82633       -0.06017       -2.65621
C          1.90351       -1.88270       -0.34793
H          1.16834       -2.03419       -1.14127
H          2.71152       -2.61389       -0.36306
H          1.36417       -1.87344        0.60269
N          0.04723        1.89840        3.09530
H          0.41120        2.75758        3.49475
C          1.10955        0.88311        2.98274
H          1.58619        0.64224        3.93987
H          0.67269       -0.02632        2.56191
H          1.87947        1.24125        2.29474
H         -0.68237        1.57009        3.72100
H         -1.71986        3.50482       -0.05361
H         -0.00796        3.31569       -0.52736
H         -1.34989        3.26198       -2.52691
H         -0.72382        1.63140       -2.24908
H         -3.19029        1.89759       -2.79809
H         -2.91536        1.02308       -1.44036
H         -0.61062        1.91220        1.41467
H         -1.69002        1.04408        0.42029
C         -0.98267        2.82346       -0.48395
C         -1.43252        2.38756       -1.87336
N         -0.84551        1.65672        0.42102
N         -2.82134        1.94975       -1.85620
H         -0.07205        1.06195        0.09332
