42
2msa2eda_248.log	Energy: -1072756.2675819
S         -0.50350       -2.13532       -0.61176
O         -0.22239       -1.40356        0.67651
O          0.71737       -2.62742       -1.25579
O         -1.37374       -1.29500       -1.48467
C         -1.49776       -3.53700       -0.14294
H         -0.90179       -4.16645        0.51814
H         -2.38739       -3.16480        0.36802
H         -1.76407       -4.07657       -1.05219
S          2.97308        0.03867        0.55549
O          4.06722        0.62511        1.29688
O          2.12976        0.94032       -0.25040
O          2.06471       -0.73882        1.57916
H          1.17643       -1.03620        1.17639
C          3.57451       -1.23283       -0.52843
H          2.71475       -1.73944       -0.97567
H          4.18982       -0.74409       -1.28474
H          4.17213       -1.91986        0.07082
H         -0.46229        2.45990       -2.56393
H         -1.99764        2.58468       -1.68363
H         -0.78345        4.65086       -1.33256
H         -0.81763        3.77352        0.18541
H          1.49338        3.14348       -0.20089
H          1.49841        3.96755       -1.61912
H         -0.91813        0.42561       -1.30496
H          0.41524        1.17152       -0.66619
C         -0.91042        2.53225       -1.56883
C         -0.38786        3.76546       -0.82364
N         -0.59872        1.29104       -0.82886
N          1.05029        3.90015       -0.71263
H         -1.07063        1.27131        0.12420
H         -3.69882        0.53262        2.65902
H         -3.45088        2.18133        2.04560
H         -5.11756        0.94959        0.73642
H         -3.74281        1.44203       -0.25324
H         -4.68724       -1.00238       -0.29144
H         -3.07378       -0.79538       -0.39764
H         -1.33627        1.23484        2.45613
H         -1.64951       -0.10349        1.58492
C         -3.29210        1.11988        1.82491
C         -4.05499        0.75823        0.55512
N         -1.85245        0.89606        1.64966
N         -3.87988       -0.64936        0.20766
