42
2msa2eda_143.log	Energy: -1072763.3282369
S          3.25903        0.07806       -0.12386
O          3.17029        1.41592       -0.71588
O          3.23892       -1.04402       -1.11359
O          2.23041       -0.16879        0.94035
C          4.84268       -0.03089        0.69227
H          5.61727        0.10803       -0.06235
H          4.89225        0.75855        1.44240
H          4.93159       -1.01179        1.15933
S         -3.03836       -0.02759       -0.21401
O         -2.78109       -1.17336       -1.10533
O         -3.01231        1.29506       -0.86115
O         -2.13686       -0.06225        0.99943
C         -4.68464       -0.25110        0.44728
H         -5.38697       -0.22627       -0.38650
H         -4.72700       -1.21616        0.95308
H         -4.89001        0.55968        1.14646
H         -0.30663       -1.71680       -1.06049
H          0.06310       -3.28186       -1.80881
H         -1.97998       -3.30919       -0.32048
H         -0.73493       -4.45368        0.24174
H         -1.31675       -1.81478        1.38292
H         -1.23295       -3.26577        2.15672
H          2.04950       -2.08161       -0.70698
H          1.19980       -2.32462        0.72484
C         -0.00297       -2.74619       -0.86084
C         -0.97967       -3.39074        0.11735
N          1.34174       -2.70454       -0.22543
N         -0.83256       -2.71715        1.40565
H          1.73615       -3.63871       -0.12904
H          1.08590        2.38247       -0.83009
H         -0.41496        1.52659       -1.27089
H         -0.70371        4.01312       -1.43243
H         -1.80366        3.25147       -0.27782
H          0.60730        4.78587        0.41271
H         -0.92244        4.99035        0.95951
H          0.85774        0.92246        0.90006
H          0.10003        2.32066        1.47424
C          0.04341        2.20900       -0.55398
C         -0.75607        3.50230       -0.46292
N          0.04329        1.56028        0.78600
N         -0.24771        4.29772        0.65902
H         -0.83612        1.00570        0.93555
