34
2msa1a1eda_70.log	Energy: -988706.4020662
S          1.38885        1.76578       -0.02428
O          2.42068        0.77479       -0.42004
O          1.18212        1.89774        1.42393
O          0.11139        1.47441       -0.77566
C          1.93893        3.34717       -0.63490
H          1.18150        4.08984       -0.38420
H          2.88427        3.58094       -0.14471
H          2.07000        3.27153       -1.71413
S         -2.75681       -0.28378       -0.02861
O         -2.75715       -0.94023        1.27279
O         -2.10439       -0.99770       -1.13401
O         -2.19560        1.16962        0.08459
H         -1.20387        1.28832       -0.23059
C         -4.43852        0.05335       -0.48887
H         -4.94842       -0.90752       -0.56261
H         -4.88610        0.66908        0.29094
H         -4.43733        0.57010       -1.44787
N          0.24219       -0.94798        1.97103
H          0.81801       -1.53310        2.56723
H         -0.73865       -1.05737        2.21930
H          0.50875        0.02695        2.11975
H          1.05659       -3.50515       -0.21539
H          1.31958       -3.07665       -1.92364
H          3.44701       -3.46662       -0.69936
H          3.34514       -1.83588       -1.37502
H          4.06818       -2.17541        1.07189
H          3.00863       -0.97598        0.74631
H         -0.26930       -1.52276       -1.06929
H          0.54029       -1.31237        0.38691
C          1.45792       -2.74563       -0.89079
C          2.93608       -2.50393       -0.60120
N          0.67972       -1.50553       -0.67435
N          3.12560       -1.98890        0.75076
H          1.16756       -0.67778       -1.03951
