30
2msa1eda_56.log	Energy: -953203.6554715
S          1.42724        1.50267        0.01223
O          2.77929        1.26465       -0.51246
O          1.23740        1.20476        1.43777
O          0.40317        0.72371       -0.82349
C          1.02030        3.21443       -0.26827
H          1.12781        3.42016       -1.33314
H         -0.00434        3.38357        0.06470
H          1.71675        3.81770        0.31462
S         -2.80771       -0.27765        0.15383
O         -3.39609        0.02016        1.44340
O         -1.92169       -1.44578        0.04885
O         -2.06981        0.98660       -0.41957
H         -1.05206        0.86363       -0.55652
C         -4.11123       -0.47219       -1.04067
H         -3.66384       -0.65521       -2.01700
H         -4.71800       -1.32011       -0.72138
H         -4.70375        0.44271       -1.04561
H          1.68659       -3.57655        0.30817
H          0.98537       -2.94803       -1.20619
H          3.54255       -2.81135       -1.13007
H          2.75227       -1.25227       -1.38777
H          4.35556       -1.96232        0.83303
H          3.67021       -0.49996        0.45472
H         -0.12825       -2.01321        0.78789
H          1.37566       -1.36333        1.24331
C          1.55921       -2.68774       -0.31450
C          2.91125       -2.05208       -0.65675
N          0.78750       -1.69172        0.46421
N          3.50230       -1.49782        0.55533
H          0.58101       -0.84635       -0.11736
