42
2msa2eda_336.log	Energy: -1072753.7076068
S          1.59756       -2.07095        0.15549
O          2.60586       -1.55184       -0.77628
O          0.44433       -2.75374       -0.48435
O          1.10624       -1.00423        1.10641
C          2.38894       -3.29291        1.18407
H          2.73440       -4.09850        0.53586
H          3.23015       -2.81660        1.68799
H          1.66098       -3.66249        1.90612
S          1.63035        2.12136       -0.42175
O          1.67881        3.55189       -0.21185
O          0.42073        1.56150       -1.04851
O          1.85858        1.42686        0.97276
H          1.59538        0.44011        0.98197
C          3.02681        1.60001       -1.38646
H          2.91031        2.03681       -2.37905
H          3.92486        1.98086       -0.90006
H          3.02447        0.50757       -1.42233
H         -2.31169        0.57199       -2.28218
H         -1.60451       -0.89767       -2.96868
H         -4.00110       -1.24189       -2.87262
H         -3.28195       -2.24761       -1.61634
H         -4.74412        0.24786       -1.18896
H         -4.89259       -1.18084       -0.40628
H         -0.58507        0.12985       -0.88254
H         -1.80208       -0.58768        0.00541
C         -2.14517       -0.49491       -2.10922
C         -3.47429       -1.20994       -1.90891
N         -1.28694       -0.63007       -0.91391
N         -4.22830       -0.55495       -0.84414
H         -0.75247       -1.52266       -0.89255
H         -0.74596        1.68762        1.48236
H         -1.85294        2.67909        2.42792
H         -1.71696        0.61247        3.56801
H         -3.28234        0.58573        2.74013
H         -0.84925       -0.84202        1.91508
H         -2.32640       -1.46344        2.25312
H         -2.21280        2.46683       -0.12236
H         -3.04762        1.10562        0.28837
C         -1.79954        1.79914        1.77669
C         -2.19829        0.56981        2.58199
N         -2.69268        1.99315        0.63491
N         -1.85274       -0.66075        1.85277
