40
2msa1dma1eda_435.log	Energy: -1038012.9341012
S          0.51720       -1.92397       -0.21181
O          1.41796       -2.79340        0.53456
O          1.07846       -1.23955       -1.39141
O         -0.13229       -0.86470        0.69897
C         -0.86141       -2.90694       -0.78086
H         -0.46482       -3.65499       -1.46802
H         -1.32422       -3.38922        0.08080
H         -1.56800       -2.24962       -1.29005
S         -3.10177        0.44365        0.20237
O         -2.65635        0.25982       -1.18571
O         -2.78729        1.73290        0.80787
O         -2.58281       -0.73709        1.09060
H         -1.54348       -0.84690        0.98032
C         -4.84927        0.15296        0.29739
H         -5.33319        0.94431       -0.27567
H         -5.06105       -0.82496       -0.13325
H         -5.14543        0.19795        1.34512
N          4.23664        0.46761        0.60923
C          4.37985       -0.55680       -0.42661
C          3.41259        0.01033        1.72684
H          5.15581        0.71722        0.95991
H          3.40315       -0.75616       -0.87605
H          5.05267       -0.19112       -1.20780
H          4.77108       -1.50879       -0.03574
H          2.39294       -0.17672        1.37886
H          3.77346       -0.92679        2.17724
H          3.37906        0.78457        2.49942
H         -0.03023        3.43352       -1.21143
H         -0.65674        2.84652        0.34941
H          1.65593        3.92083        0.54662
H          1.63129        2.23832        1.06704
H          2.94185        3.27374       -1.28052
H          3.26432        1.90822       -0.37547
H         -0.80718        1.18071       -1.48682
H          0.89032        1.18097       -1.51679
C          0.13466        2.72841       -0.39245
C          1.53927        2.88975        0.19095
N          0.04813        1.35982       -0.95140
N          2.52753        2.48517       -0.80025
H          0.05395        0.62501       -0.20968
