41
2msa1dma1tma_53.log	Energy: -1027944.4891742
S         -0.10314        2.09415       -0.04688
O          0.91294        1.81126       -1.11056
O          0.39243        1.86535        1.31763
O         -1.38524        1.39305       -0.34288
C         -0.45570        3.83665       -0.19802
H          0.47091        4.38133       -0.01614
H         -0.82585        4.02983       -1.20481
H         -1.20673        4.09532        0.54860
S          2.55120       -0.96142        0.21562
O          3.55624       -1.98430        0.00579
O          1.14049       -1.31393        0.01541
O          2.90563        0.25447       -0.72376
H          2.11112        0.88137       -0.84544
C          2.71313       -0.28685        1.85098
H          2.49713       -1.09325        2.55333
H          3.73865        0.06301        1.96958
H          1.99000        0.52705        1.94642
N         -2.49663       -0.72230        1.42519
C         -1.42778       -1.21146        2.28738
C         -3.80430       -0.79586        2.05599
H         -2.28824        0.23900        1.16313
H         -1.55727       -2.28743        2.45721
H         -0.46495       -1.05551        1.79523
H         -1.40403       -0.71313        3.27046
H         -4.07086       -1.84501        2.22987
H         -3.85363       -0.27476        3.02720
H         -4.56173       -0.36058        1.39643
N         -1.47037       -1.10624       -1.52107
C         -2.84929       -0.70993       -1.89915
H         -3.49218       -0.88495       -1.03667
H         -2.84537        0.35113       -2.14486
H         -3.16808       -1.31044       -2.75381
C         -0.49609       -0.81588       -2.60567
H         -0.47878        0.26101       -2.77202
H          0.48805       -1.14047       -2.27290
H         -0.80345       -1.35231       -3.50593
C         -1.41610       -2.52181       -1.07481
H         -0.39744       -2.74195       -0.76017
H         -2.09864       -2.62214       -0.23095
H         -1.71713       -3.16051       -1.90843
H         -1.22461       -0.48693       -0.72708
