37
2msa1ma1eda_484.log	Energy: -1013348.9037455
S          1.09836       -2.10475       -0.38399
O          2.11000       -0.99980       -0.42346
O          0.40456       -2.30845       -1.66362
O          0.17614       -1.95179        0.77762
C          2.04897       -3.58280       -0.05735
H          2.55997       -3.46087        0.89783
H          1.35703       -4.42457       -0.02000
H          2.76745       -3.71166       -0.86726
S         -2.73876        0.55328       -0.55660
O         -1.48165        1.27459       -0.57469
O         -3.87485        1.02940       -1.32726
O         -3.21450        0.54653        1.01133
H         -4.16558        0.72218        1.03284
C         -2.45040       -1.16666       -0.84504
H         -1.97640       -1.26062       -1.82364
H         -1.75108       -1.53277       -0.08775
H         -3.41250       -1.67780       -0.81320
N         -0.23034        0.50500        2.38256
H         -1.20970        0.77473        2.37509
C          0.29602        0.46047        3.74653
H         -0.24309       -0.23346        4.40445
H          1.34351        0.14765        3.71565
H          0.25644        1.45754        4.19482
H         -0.17511       -0.42270        1.95032
H          2.29777        3.08406        1.01290
H          3.11402        1.50875        1.13232
H          4.19194        2.87906       -0.63823
H          3.40669        1.45009       -1.32303
H          2.44007        4.20065       -1.53017
H          2.52200        3.03760       -2.68277
H          0.64711        1.28456        1.08920
H          0.68975        1.96830       -0.47736
C          2.50853        2.14827        0.48618
C          3.21755        2.41302       -0.83848
N          1.23521        1.45699        0.21993
N          2.34542        3.20620       -1.70077
H          1.45246        0.49786       -0.15497
