43
2msa1eda1tma_232.log	Energy: -1062670.9169160
S          1.04717        1.99228       -0.18199
O          1.78435        3.17025        0.26759
O          0.37113        1.26900        0.95390
O          1.86352        1.02185       -0.98051
H          2.61982       -0.07320       -0.17695
C         -0.25375        2.50736       -1.28277
H         -0.92448        3.16247       -0.72568
H          0.20566        3.04221       -2.11435
H         -0.76378        1.60784       -1.63132
S         -0.60696       -1.72858       -0.58840
O          0.63714       -2.48790       -0.73875
O         -0.94575       -0.76601       -1.62938
O         -0.60664       -1.02616        0.82418
H         -0.21388       -0.06388        0.80420
C         -1.95446       -2.85727       -0.36630
H         -2.06022       -3.40144       -1.30592
H         -1.69854       -3.53919        0.44491
H         -2.85759       -2.27517       -0.13746
H         -4.36645        0.66340        2.11071
H         -2.92602       -0.35693        1.92946
H         -2.48379        1.78178        0.90789
H         -2.57733        0.54791       -0.35336
H         -4.65208        2.52678        0.22476
H         -3.91502        2.19936       -1.19914
H         -5.08107       -1.45746        1.30465
H         -5.12110       -0.45924        0.00561
C         -3.74995        0.11113        1.38116
C         -3.16821        1.10185        0.38102
N         -4.50136       -0.92269        0.66675
N         -4.24830        1.78463       -0.33706
N          3.31418       -0.66054        0.38528
C          4.39029        0.29251        0.74625
H          4.82119        0.69818       -0.16909
H          3.95317        1.11050        1.32050
H          5.15395       -0.22420        1.33240
C          2.61689       -1.17973        1.58798
H          2.14854       -0.34009        2.10347
H          1.84821       -1.88029        1.26438
H          3.34515       -1.67492        2.23524
C          3.78993       -1.75171       -0.49728
H          2.92487       -2.34420       -0.79678
H          4.25618       -1.30842       -1.37779
H          4.51514       -2.36386        0.04482
