35
2msa1ma1dma_108.log	Energy: -978628.1298766
S         -1.88036       -1.04742        0.22054
O         -2.61327        0.22749        0.01057
O         -1.06676       -1.07034        1.45217
O         -1.07788       -1.40796       -0.99537
H          0.44307       -1.61297       -0.99894
C         -3.11950       -2.31676        0.37868
H         -3.73982       -2.07312        1.24133
H         -3.71313       -2.33014       -0.53531
H         -2.61079       -3.26973        0.52465
S          2.30725       -0.69946       -0.31213
O          3.67701       -0.83342       -0.75599
O          1.44704       -1.76295       -1.08922
O          1.67101        0.62231       -0.43054
H          0.13693        1.43860       -0.71033
C          2.16680       -1.20753        1.38485
H          2.60056       -2.20396        1.46977
H          2.72990       -0.49149        1.98497
H          1.10653       -1.20744        1.65066
N         -0.39251        1.92153        1.97536
H         -1.11183        2.24988        2.61180
C          0.93559        2.18725        2.52621
H          1.14027        1.68440        3.48320
H          1.68789        1.86884        1.79950
H          1.06386        3.26339        2.67982
H         -0.54655        0.91804        1.88197
N         -0.70622        1.86685       -1.13278
C         -0.77895        1.43408       -2.54633
C         -0.66478        3.32984       -0.93498
H         -1.50346        1.44161       -0.61102
H          0.12455        1.75868       -3.06396
H         -0.85618        0.34679       -2.56047
H         -1.66135        1.87819       -3.00934
H          0.20784        3.73412       -1.45053
H         -1.57545        3.77155       -1.34283
H         -0.59418        3.50372        0.13884
