40
2msa1dma1eda_495.log	Energy: -1038005.9995631
S         -0.66359       -1.62408        0.71511
O         -1.06465       -3.00054        0.43354
O         -0.54722       -0.81228       -0.55522
O          0.60890       -1.51196        1.50427
H          1.91733       -1.91753        0.88947
C         -1.89546       -0.82075        1.70684
H         -2.82961       -0.79097        1.13429
H         -2.00662       -1.39902        2.62463
H         -1.53140        0.18585        1.92337
S          0.71449        2.30816        0.35861
O          2.16066        2.08447        0.36571
O         -0.02644        2.03512        1.58177
O          0.06269        1.55897       -0.85697
H         -0.20609        0.56386       -0.64201
C          0.42194        3.99010       -0.13997
H          0.85904        4.62887        0.62809
H          0.90579        4.15642       -1.10203
H         -0.65412        4.14661       -0.20828
N         -4.24330       -0.09018       -0.52837
C         -3.88010       -0.99130       -1.61465
C         -3.64964        1.23003       -0.67223
H         -5.25202       -0.01012       -0.46752
H         -2.79881       -1.15732       -1.59413
H         -4.37104       -1.95726       -1.47078
H         -4.14895       -0.60143       -2.61239
H         -2.56077        1.14279       -0.60807
H         -3.88882        1.72004       -1.63265
H         -3.98386        1.87771        0.14364
H          3.48673       -2.81465       -1.49944
H          1.71365       -2.68448       -1.30935
H          2.82000       -0.74325       -2.62359
H          1.79450       -0.27801       -1.27278
H          4.64119        0.06074       -1.44469
H          3.52458        0.81315       -0.47947
H          3.14319       -3.10241        0.78768
H          3.55938       -1.47657        0.57837
C          2.67392       -2.22458       -1.06751
C          2.73638       -0.76284       -1.53215
N          2.84492       -2.20800        0.40856
N          3.83532       -0.08219       -0.84999
