35
2msa1a1tma_09.log	Energy: -978636.2484748
S         -2.27035        0.02605       -0.16410
O         -1.51350        0.92414       -1.06207
O         -2.04883        0.28582        1.27766
O         -2.09146       -1.42751       -0.49744
H         -1.30642       -2.19192        0.72278
C         -3.99758        0.35457       -0.48987
H         -4.19156        1.40407       -0.26584
H         -4.19037        0.14635       -1.54250
H         -4.60123       -0.29133        0.14799
S          1.81980       -1.27371       -0.19425
O          1.81074       -2.64307        0.38571
O          3.13747       -0.66365       -0.41517
O          0.91871       -0.39376        0.63558
H          0.85824        1.14003        0.37693
C          1.01870       -1.40838       -1.78510
H          1.61195       -2.08597       -2.39998
H          0.00407       -1.77991       -1.63172
H          0.96895       -0.41745       -2.23687
N         -0.69280       -2.39318        1.56346
H         -1.12947       -3.04199        2.20978
H         -0.56887       -1.46579        1.98068
H          0.24708       -2.71226        1.23695
N          1.09456        2.17422        0.25852
C         -0.01301        2.98546        0.81337
H         -0.91280        2.75956        0.24252
H         -0.17125        2.69785        1.85267
H          0.24968        4.04459        0.74428
C          2.36708        2.35916        0.99623
H          2.18573        2.17556        2.05558
H          3.08740        1.62809        0.62366
H          2.72885        3.37967        0.84776
C          1.27138        2.39630       -1.19679
H          2.08707        1.75813       -1.54160
H          0.33893        2.12273       -1.69113
H          1.51605        3.44687       -1.37350
