40
2msa1dma1eda_534.log	Energy: -1038007.7650547
S         -2.05751       -1.27928       -0.21216
O         -1.91890       -2.71377       -0.51585
O         -1.29942       -0.39474       -1.13493
O         -1.68270       -0.97742        1.22094
H         -0.21312       -1.33189        1.43516
C         -3.77764       -0.84133       -0.34487
H         -4.09328       -1.07144       -1.36313
H         -4.33499       -1.44110        0.37472
H         -3.87656        0.22855       -0.14476
S          2.51703        1.41562        0.06297
O          3.38653        2.56444        0.16332
O          2.35806        0.55618        1.25239
O          3.01880        0.49726       -1.11637
H          2.79841       -0.49597       -0.95139
C          0.90234        1.91921       -0.47323
H          1.01983        2.47731       -1.40241
H          0.27528        1.03486       -0.62541
H          0.48893        2.55940        0.30762
N         -2.57985        2.33162       -0.09367
C         -2.30064        2.43056        1.32653
C         -2.44977        3.59333       -0.79490
H         -1.99734        1.61957       -0.52548
H         -3.08961        3.01142        1.81839
H         -2.27850        1.42973        1.76480
H         -1.33933        2.92956        1.55625
H         -3.20890        4.29719       -0.43514
H         -1.46344        4.07683       -0.65893
H         -2.61380        3.44096       -1.86501
H          1.91415       -3.43419        1.24660
H          0.16416       -3.54724        0.93518
H          1.12033       -3.64855       -1.16363
H          0.47312       -2.01791       -1.06252
H          3.31895       -2.59261       -0.52311
H          2.73941       -2.19740       -1.98690
H          0.88733       -1.85966        2.59544
H          1.45698       -0.89855        1.37619
C          1.04941       -2.92005        0.81464
C          1.25178       -2.67790       -0.67304
N          0.80372       -1.67724        1.59701
N          2.56869       -2.08707       -0.98937
