42
2msa2eda_23.log	Energy: -1072770.2890363
S         -2.70501        0.36381       -0.25719
O         -2.58322        1.65820       -0.94327
O         -1.93596        0.32025        1.02826
O         -2.38586       -0.81508       -1.11157
C         -4.41946        0.16539        0.19992
H         -5.01358        0.17788       -0.71416
H         -4.53306       -0.78585        0.72028
H         -4.69666        0.99501        0.85055
S          3.02751       -0.28812       -0.19863
O          3.28976        1.03979       -0.76904
O          2.50892       -1.28863       -1.17556
O          2.14817       -0.23527        1.01459
C          4.59128       -0.93647        0.36836
H          5.25376       -1.01665       -0.49385
H          4.99926       -0.24054        1.10166
H          4.42215       -1.91538        0.81707
H          0.77531       -2.81894        1.07188
H         -0.39189       -1.48578        1.20280
H         -1.43531       -3.62839        1.96740
H         -2.23807       -2.96442        0.53580
H         -0.40575       -5.25122        0.54880
H         -1.89944       -5.13583       -0.11112
H          0.90331       -1.73918       -0.96773
H         -0.11196       -3.06601       -1.22988
C         -0.17779       -2.43102        0.70461
C         -1.31391       -3.42689        0.89537
N         -0.03053       -2.16439       -0.74810
N         -1.05125       -4.61961        0.08690
H         -0.82388       -1.55813       -1.05352
H          1.52717        2.62198       -0.62012
H          0.01169        1.85876       -1.14251
H         -0.15967        4.35333       -1.28031
H         -1.33425        3.64187       -0.16964
H          1.12373        5.04909        0.61259
H         -0.40984        5.32267        1.11301
H          1.09784        1.09811        1.03999
H          0.48192        2.57267        1.64247
C          0.46503        2.50758       -0.39235
C         -0.26896        3.83878       -0.31752
N          0.36618        1.83996        0.93366
N          0.23959        4.59977        0.82809
H         -0.56234        1.37559        1.05023
