34
2msa1a1eda_309.log	Energy: -988691.6727624
S         -1.96615       -0.96669        0.32865
O         -3.27284       -0.24643        0.39130
O         -1.16140       -0.89016        1.54940
O         -1.21280       -0.52465       -0.90152
H          0.08659        0.41259       -0.92738
C         -2.35469       -2.68187        0.04641
H         -2.93830       -3.03665        0.89610
H         -2.92440       -2.76435       -0.87891
H         -1.41227       -3.22704       -0.02517
S          0.93609        2.13710        0.09586
O          1.99061        3.05737       -0.26392
O          0.84437        1.06013       -1.06135
O         -0.41771        2.69511        0.30790
H         -1.82946        2.34537       -0.46953
C          1.37496        1.19816        1.53004
H          2.27100        0.62086        1.26861
H          1.55829        1.91514        2.33153
H          0.53780        0.53721        1.77053
N         -2.70304        1.99374       -0.93782
H         -3.38884        2.73657       -1.03783
H         -3.07037        1.17688       -0.36470
H         -2.44044        1.61980       -1.84837
H          3.70292       -2.96328       -0.32223
H          3.32387       -2.46428        1.33519
H          1.36657       -3.50612        0.35118
H          1.04348       -1.78977        0.60723
H          1.50306       -3.07466       -1.97389
H          0.37643       -1.94134       -1.54302
H          4.44204       -0.70900       -0.02804
H          3.06659       -0.61944       -0.91965
C          3.11340       -2.25111        0.28050
C          1.63119       -2.49308        0.00876
N          3.43916       -0.85555       -0.00154
N          1.32893       -2.25798       -1.40100
