28
2msa1dma_35.log	Energy: -918461.6011689
S          2.41798       -0.61146        0.09947
O          1.02808       -0.84208       -0.39642
O          2.63571       -1.02650        1.48699
O          2.81903        0.81126       -0.18017
C          3.48809       -1.60569       -0.92899
H          3.24048       -2.65381       -0.75818
H          3.32377       -1.33316       -1.97149
H          4.51886       -1.40591       -0.63512
S         -2.50863       -0.46901        0.00265
O         -2.55531       -0.14696        1.42009
O         -1.96530        0.50802       -0.92940
O         -4.03589       -0.76056       -0.46854
H         -4.61518       -0.61679        0.29364
C         -1.74662       -2.03967       -0.27446
H         -0.67381       -1.89063       -0.09967
H         -2.18719       -2.75729        0.41705
H         -1.92793       -2.31684       -1.31309
N          0.42568        1.93860       -0.15219
C          0.11739        3.17274       -0.89526
C          0.10640        1.99488        1.29252
H         -0.09353        1.14917       -0.55954
H          0.69185        3.99872       -0.47348
H          0.38985        3.03172       -1.94111
H         -0.95092        3.38053       -0.81934
H          0.67905        2.80372        1.74812
H         -0.96405        2.15654        1.42374
H          0.39297        1.04403        1.74261
H          1.44451        1.64827       -0.24605
