43
2msa1eda1tma_117.log	Energy: -1062685.1447206
S          1.79300        1.98767        0.26417
O          2.76684        3.00531       -0.12563
O          1.57269        0.91924       -0.75747
O          0.45917        2.54515        0.69136
H         -0.60990        2.04914       -0.33763
C          2.42619        1.16301        1.71659
H          3.42326        0.78667        1.48117
H          2.48664        1.89904        2.51889
H          1.75242        0.34257        1.97135
S         -0.99418       -1.41402        1.17229
O         -1.73190       -2.59658        1.60977
O         -1.26977       -1.06482       -0.27680
O          0.48001       -1.47138        1.38325
H          1.13322       -1.36565       -0.34602
C         -1.56766       -0.00981        2.11514
H         -2.62335        0.14630        1.88225
H         -1.43798       -0.24760        3.17150
H         -0.96326        0.86226        1.84863
H         -3.49780        0.98062       -2.46300
H         -4.67526        1.85664       -1.48630
H         -2.65434        3.12519       -1.36597
H         -2.85651        2.32526        0.20426
H         -1.28428        0.55100       -0.70134
H         -0.94832        1.62402       -1.92550
H         -4.88101       -0.34296       -0.79059
H         -3.26452       -0.56278       -0.57294
C         -3.76203        1.25631       -1.42589
C         -2.67254        2.15758       -0.85893
N         -4.01640        0.12476       -0.54764
N         -1.31720        1.56440       -0.97860
N          1.61349       -1.93956       -1.07205
C          3.06804       -1.72952       -0.86732
H          3.27695       -0.67271       -1.02980
H          3.30880       -2.00254        0.16073
H          3.62345       -2.35852       -1.56653
C          1.21555       -3.34693       -0.81382
H          1.46780       -3.59524        0.21592
H          0.13635       -3.43176       -0.94153
H          1.74065       -3.99690       -1.51725
C          1.16385       -1.48389       -2.40929
H          0.07795       -1.57527       -2.44182
H          1.45681       -0.44211       -2.52786
H          1.62722       -2.11598       -3.17058
