32
2msa1a1dma_124.log	Energy: -953954.3962980
S         -2.86317       -0.57783       -0.33407
O         -3.78542       -1.50098       -0.97416
O         -1.40813       -0.97096       -0.48961
O         -3.12162       -0.34162        1.12658
H         -1.89093       -0.64468        1.94783
C         -3.02453        1.01746       -1.11345
H         -2.82093        0.89320       -2.17773
H         -4.05120        1.35114       -0.96052
H         -2.31743        1.71070       -0.65399
S          0.84557        1.34801        0.14524
O          1.14966        0.45450        1.28670
O         -0.18584        2.34673        0.38855
O          0.50197        0.47764       -1.11029
H         -0.33051       -0.13035       -0.90950
C          2.35338        2.10244       -0.38719
H          2.65809        2.78351        0.40835
H          3.08810        1.30130       -0.53254
H          2.14470        2.65059       -1.30583
N         -0.96620       -0.93968        2.43954
H         -0.79874       -1.91593        2.20608
H         -1.02939       -0.82756        3.44748
H         -0.18024       -0.37322        2.05643
N          3.68769       -0.87701       -0.20982
C          4.91418       -1.36454        0.39971
C          3.30003       -1.63794       -1.38896
H          2.93354       -0.89412        0.47071
H          5.74997       -1.21029       -0.29134
H          5.12472       -0.80093        1.31283
H          4.88337       -2.43921        0.65149
H          4.06080       -1.51199       -2.16717
H          3.19190       -2.71939       -1.19763
H          2.35198       -1.25568       -1.77454
