35
2msa1a1tma_91.log	Energy: -978608.9071970
S         -0.88337        1.82230        0.09095
O         -1.81918        2.90660        0.29297
O         -0.71030        0.81115        1.13389
O          0.54342        2.49626       -0.18436
H          1.25799        1.82862       -0.04339
C         -1.24330        0.99353       -1.43563
H         -2.19904        0.47430       -1.28737
H         -1.30424        1.74744       -2.22033
H         -0.44900        0.26906       -1.62668
S          2.15117       -0.84288        0.09655
O          1.22523       -1.28666       -0.92932
O          2.46822        0.60065        0.13751
O          3.51451       -1.61326       -0.01209
H          4.29539       -0.96374       -0.28323
C          1.55551       -1.35249        1.68594
H          0.61274       -0.82385        1.83928
H          1.41101       -2.43258        1.65748
H          2.29341       -1.06994        2.43597
N          5.34520        0.10086       -0.65494
H          6.19257        0.09803       -0.09611
H          4.84333        0.96865       -0.47680
H          5.61199        0.08503       -1.63448
N         -3.50645       -1.07073       -0.26635
C         -4.00424       -0.45873        0.95598
H         -3.18478        0.04572        1.47425
H         -4.76685        0.28651        0.71225
H         -4.45077       -1.20273        1.64387
C         -4.57408       -1.71099       -1.01209
H         -5.34722       -0.97680       -1.25732
H         -4.18005       -2.12016       -1.94755
H         -5.04904       -2.53744       -0.44823
C         -2.42253       -1.99810        0.01394
H         -2.02615       -2.40382       -0.92192
H         -1.61298       -1.46708        0.52180
H         -2.74772       -2.84414        0.64989
