29
2msa1a1ma_21.log	Energy: -929311.5456984
S         -2.16113       -0.73013       -0.18302
O         -1.88677       -1.52340       -1.37691
O         -2.59604        0.67094       -0.42516
O         -0.99728       -0.73417        0.79599
C         -3.49627       -1.50800        0.70693
H         -4.37720       -1.48634        0.06468
H         -3.20453       -2.53605        0.92219
H         -3.67610       -0.95297        1.62748
S          2.25220       -0.50242       -0.05874
O          2.66849        0.13640        1.18741
O          1.76013        0.39839       -1.11158
O          1.23239       -1.64940        0.20614
H          0.26231       -1.29651        0.41556
C          3.60552       -1.44079       -0.71775
H          3.92331       -2.15835        0.03803
H          3.26393       -1.94300       -1.62214
H          4.40334       -0.73208       -0.94079
N          0.19728        1.66614        2.23157
H          0.01317        2.16302        3.09589
H          1.16049        1.33223        2.24550
H         -0.39367        0.83473        2.19760
N         -0.32582        2.21737       -0.45487
H          0.40465        1.61266       -0.86305
H         -1.23727        1.71741       -0.56071
C         -0.33998        3.56309       -1.05298
H         -1.12150        4.15772       -0.57964
H          0.62757        4.04128       -0.89774
H         -0.54129        3.48561       -2.12154
H         -0.12746        2.22099        0.58569
