37
2msa1ma1eda_128.log	Energy: -1013361.5033513
S         -2.73271        0.23554       -0.19770
O         -2.24998        1.16416       -1.21826
O         -2.53209        0.65826        1.19748
O         -2.17156       -1.19382       -0.42198
H         -1.10407       -1.23772       -0.59145
C         -4.46723       -0.05286       -0.43561
H         -4.97204        0.90097       -0.28091
H         -4.61656       -0.41223       -1.45322
H         -4.79645       -0.78968        0.29639
S          1.28158       -1.87890        0.03137
O          0.22146       -1.29317       -0.87827
O          0.99294       -1.54079        1.44909
O          2.62312       -1.52301       -0.43008
H          0.48226        1.56579        0.78922
C          1.10375       -3.64658       -0.10350
H          0.09393       -3.91720        0.20621
H          1.28082       -3.92207       -1.14316
H          1.84503       -4.10680        0.55006
N          0.23297        1.08373        1.71168
H         -0.79708        1.02702        1.72539
C          0.77503        1.79820        2.88105
H          0.39828        1.34373        3.79746
H          1.86346        1.72988        2.87296
H          0.47417        2.84587        2.84183
H          0.57665        0.09810        1.66724
H          3.14274        3.13824       -1.25646
H          3.67120        1.66197       -2.04429
H          1.41179        2.11822       -2.73502
H          1.40702        0.65700       -1.73455
H          0.62544        3.32304       -0.79596
H         -0.37086        2.06360       -1.09826
H          2.87509        1.90673        0.76477
H          3.30648        0.49788        0.02422
C          2.99383        2.04932       -1.27584
C          1.56176        1.73888       -1.71358
N          3.41837        1.51002        0.00727
N          0.56964        2.30720       -0.78182
