28
2msa1dma_30.log	Energy: -918463.1346703
S          1.02815        0.93307       -0.13245
O          0.17165        0.22847       -1.12432
O          2.31004        1.39177       -0.74759
O          1.28927        0.10467        1.08217
H          2.85737       -0.67367        0.81852
C          0.14055        2.37938        0.38594
H         -0.02944        2.99302       -0.49910
H         -0.80748        2.04566        0.81259
H          0.74968        2.91001        1.11757
S         -3.12420       -0.26620        0.01601
O         -3.98233        0.20827       -1.05531
O         -2.58733        0.70805        0.96163
O         -1.93979       -1.14749       -0.56277
H         -1.12024       -0.58803       -0.75978
C         -3.98409       -1.53755        0.91632
H         -4.86367       -1.06950        1.35938
H         -4.27817       -2.31680        0.21368
H         -3.32009       -1.92690        1.68710
N          3.66279       -0.72513        0.15223
C          3.41671       -1.82528       -0.80717
C          4.96344       -0.76892        0.84398
H          3.49950        0.18654       -0.34108
H          3.43891       -2.77891       -0.27815
H          2.43477       -1.67003       -1.25671
H          4.18571       -1.80680       -1.58037
H          5.04790       -1.70388        1.39989
H          5.76620       -0.70530        0.10803
H          5.02464        0.07506        1.53093
