40
2msa1dma1eda_120.log	Energy: -1038025.7625408
S         -2.42998        0.33533       -0.60393
O         -1.82052        1.44812       -1.34759
O         -2.16729        0.41915        0.87891
O         -2.09483       -1.01593       -1.11033
H          0.18823       -1.35169        0.96446
C         -4.20050        0.51303       -0.78105
H         -4.49088        1.48474       -0.38092
H         -4.43658        0.44901       -1.84361
H         -4.68813       -0.29240       -0.23130
S          2.19664       -0.94049       -0.80816
O          2.37568       -2.39119       -0.74920
O          3.39529       -0.09684       -0.94845
O          1.41494       -0.45091        0.42487
H          2.03559        0.83725        0.97143
C          1.10806       -0.58160       -2.17536
H          1.57900       -0.97167       -3.07845
H          0.13968       -1.05366       -1.99600
H          0.97379        0.49809       -2.24728
N         -0.64492       -1.83184        1.39490
C         -0.43812       -1.90142        2.85134
C         -0.84032       -3.13951        0.73518
H         -1.42072       -1.16762        1.18529
H          0.46249       -2.48101        3.06100
H         -0.32329       -0.88712        3.23546
H         -1.30195       -2.37300        3.32325
H          0.08162       -3.71680        0.81795
H         -1.66976       -3.66527        1.21226
H         -1.07660       -2.94937       -0.31045
H          2.40835        3.79359        0.67151
H          2.58414        2.55499       -0.60596
H          0.24908        3.71232       -0.49990
H          0.23399        1.96335       -0.50157
H         -0.55788        3.65334        1.64897
H         -0.92175        2.08278        1.32914
H          3.30370        1.78063        1.62432
H          1.68956        2.01832        2.11691
C          2.04379        2.83067        0.30145
C          0.52575        2.83251        0.08979
N          2.32910        1.80550        1.33786
N         -0.15941        2.76100        1.38339
