38
2msa2dma_140.log	Energy: -1003280.1526503
S          0.66045       -1.65936       -0.21542
O         -0.51075       -2.44893       -0.63888
O          0.58526       -1.13213        1.14614
O          0.91642       -0.50702       -1.23839
H          0.08943        0.18116       -1.24149
C          2.13407       -2.61576       -0.41947
H          2.07789       -3.43723        0.29548
H          2.16192       -2.98833       -1.44321
H          2.97604       -1.94637       -0.20610
S         -1.24884        2.04703       -0.12859
O         -1.68010        3.32376       -0.67464
O         -1.01040        0.99624       -1.20272
O         -2.14403        1.46137        0.91246
H         -2.47631       -0.08484        0.56459
C          0.33549        2.27530        0.66333
H          1.04286        2.64000       -0.08318
H          0.20223        3.01765        1.45077
H          0.65522        1.32013        1.08386
N         -2.80176       -1.04753        0.26850
C         -3.82215       -0.86572       -0.78529
C         -3.25613       -1.79146        1.45949
H         -1.98066       -1.53559       -0.13227
H         -4.66517       -0.31193       -0.37022
H         -3.36875       -0.29156       -1.59359
H         -4.15210       -1.84042       -1.14885
H         -4.08582       -1.25494        1.92190
H         -3.57469       -2.79320        1.16631
H         -2.42345       -1.85746        2.15984
N          3.69320        0.25528        0.09201
C          4.81128        0.91506       -0.56318
C          3.56879        0.61260        1.49709
H          2.83138        0.47993       -0.39646
H          5.75120        0.55228       -0.13315
H          4.81224        0.67074       -1.62882
H          4.79600        2.01382       -0.45720
H          4.45570        0.26616        2.03879
H          3.47651        1.70007        1.66657
H          2.69329        0.11640        1.92355
