37
2msa1ma1eda_186.log	Energy: -1013361.2866032
S         -2.19044       -1.12979       -0.08266
O         -2.44929        0.12262       -0.79322
O         -1.91275       -1.00392        1.35574
O         -1.07498       -1.94789       -0.78489
H         -0.10225       -1.79151       -0.36273
C         -3.58809       -2.19971       -0.30519
H         -3.73174       -2.34884       -1.37512
H         -3.38282       -3.14268        0.20022
H         -4.45073       -1.69883        0.13469
S          2.29640       -0.86890       -0.19463
O          2.25986       -0.62252       -1.63492
O          1.08267       -1.61898        0.31506
O          2.51315        0.33249        0.65575
H          1.04219        0.75985        1.44750
C          3.66283       -1.96351        0.13810
H          3.51113       -2.87782       -0.43560
H          4.57585       -1.45817       -0.17767
H          3.68679       -2.17424        1.20705
N          0.11607        0.96871        1.88230
H         -0.37150        1.71235        1.29744
C          0.26457        1.39066        3.28644
H         -0.72023        1.56521        3.72095
H          0.77858        0.61143        3.84934
H          0.84984        2.30978        3.32384
H         -0.46269        0.11902        1.80046
H         -1.00063        3.94829       -1.55708
H          0.09092        4.30452       -0.20152
H          1.32657        3.20289       -1.94020
H          1.24496        2.13943       -0.54088
H          0.76857        0.94176       -2.54716
H         -0.65239        1.02959       -1.77778
H         -1.91302        3.42383        0.65739
H         -1.84783        2.08742       -0.26684
C         -0.41079        3.49842       -0.74757
C          0.64296        2.58124       -1.35115
N         -1.26801        2.77602        0.21490
N          0.05006        1.59509       -2.24743
