42
2msa2eda_438.log	Energy: -1072749.1846441
S          0.66307       -2.37844       -0.66714
O          0.52522       -3.12344       -1.91128
O          0.11720       -0.96482       -0.74311
O          2.04644       -2.29705       -0.11536
H          2.49308       -0.82904        0.48216
C         -0.31875       -3.18339        0.58683
H         -1.35836       -3.18839        0.25768
H          0.05706       -4.20121        0.69684
H         -0.21425       -2.62206        1.51658
S         -2.73918        0.44391        0.26253
O         -2.17612        1.77685        0.47120
O         -2.58305       -0.52101        1.34591
O         -2.22938       -0.16823       -1.09387
H         -1.27390       -0.56083       -0.99981
C         -4.46297        0.61563       -0.13379
H         -4.94116        1.06849        0.73523
H         -4.55482        1.26236       -1.00592
H         -4.87396       -0.37389       -0.33067
H          1.90143        2.83285       -2.78672
H          1.95194        1.08278       -2.49589
H         -0.31945        1.95798       -2.11692
H          0.36978        1.27673       -0.65687
H          0.10584        4.13292       -1.20758
H         -0.50847        3.25076        0.02004
H          3.75364        2.46625       -1.40080
H          2.56929        3.02303       -0.40688
C          1.82518        2.05581       -2.01191
C          0.45403        2.11243       -1.35305
N          2.86190        2.22769       -0.97749
N          0.29905        3.35060       -0.58920
H          1.21897        1.86403        1.53477
H          1.30333        1.49330        3.25586
H          3.52712        1.32602        2.31773
H          2.96738       -0.29174        2.82741
H          2.94805        0.80054        0.04075
H          4.03528       -0.30914        0.67342
H         -0.47453        0.21475        2.54611
H          0.23756       -0.26643        1.17669
C          1.37986        1.04833        2.25873
C          2.80494        0.52726        2.12334
N          0.42398       -0.04058        2.15179
N          3.07234        0.01477        0.75084
