37
2msa1ma1eda_188.log	Energy: -1013362.5944773
S         -1.06613       -1.88571       -0.11356
O         -2.35194       -1.17267       -0.22421
O         -0.53784       -2.05217        1.24493
O         -0.04584       -1.22787       -1.03481
C         -1.30690       -3.51363       -0.80017
H         -2.04614       -4.02705       -0.18473
H         -1.66386       -3.40554       -1.82424
H         -0.35256       -4.03984       -0.77206
S          2.78575        0.40787       -0.03515
O          2.45116        0.60613        1.36786
O          2.27437        1.41804       -0.97398
O          2.39575       -1.02574       -0.52619
H          1.37153       -1.14129       -0.68829
C          4.54859        0.30757       -0.21583
H          4.95546        1.26560        0.10874
H          4.90869       -0.50021        0.42076
H          4.77884        0.11994       -1.26384
N         -0.53636        0.91790        1.96604
H         -0.18257       -0.03923        1.93277
C         -1.75155        0.95402        2.78753
H         -1.55804        0.74975        3.84766
H         -2.23649        1.92784        2.68858
H         -2.44381        0.19703        2.41374
H          0.20752        1.47245        2.38008
H         -1.46864        3.42252       -0.65339
H         -1.12562        2.80962       -2.29056
H         -3.53732        2.79279       -1.80652
H         -2.93440        1.15704       -2.09566
H         -4.42358        1.67762       -0.03742
H         -3.14403        0.68058        0.15226
H          0.41794        1.79132       -0.83971
H         -0.69868        1.37123        0.35080
C         -1.49494        2.53991       -1.29691
C         -2.91542        1.99745       -1.38357
N         -0.57255        1.53880       -0.71593
N         -3.41173        1.64040       -0.06268
H         -0.65770        0.60589       -1.14672
