32
2msa2ma_186.log	Energy: -953956.5857225
S         -1.97165       -1.31516        0.18165
O         -2.65401       -0.27313       -0.61089
O         -1.79850       -1.02923        1.59795
O         -0.61780       -1.69109       -0.49628
H          0.00934       -0.84241       -0.57479
C         -2.86094       -2.83508       -0.02682
H         -2.95308       -3.03962       -1.09277
H         -2.30695       -3.62348        0.48213
H         -3.84042       -2.69380        0.43084
S          1.46033        1.12524        0.35898
O          2.82586        1.46170       -0.03151
O          0.71326        0.36960       -0.72947
O          0.61940        2.29494        0.76264
H         -0.68872        2.31522       -0.13946
C          1.52347        0.02667        1.75662
H          2.13306       -0.83308        1.46086
H          1.99842        0.57202        2.57318
H          0.50468       -0.26055        2.02329
N         -1.49238        2.25804       -0.83872
H         -1.05598        2.28645       -1.75890
C         -2.48447        3.33483       -0.64553
H         -3.27140        3.25434       -1.39555
H         -2.91677        3.22813        0.34869
H         -1.98864        4.30202       -0.72447
H         -1.92245        1.31674       -0.74087
N          3.85850       -1.47589       -0.10780
H          3.97052       -0.46606       -0.15936
C          3.32227       -1.98600       -1.36773
H          3.98166       -1.84339       -2.23735
H          3.11238       -3.05573       -1.27000
H          2.37804       -1.47744       -1.57785
H          4.76690       -1.88058        0.08916
