38
2msa1ma1tma_40.log	Energy: -1003285.2516228
S          1.19497       -1.82827        0.07149
O          2.19871       -1.66843       -0.99227
O         -0.08055       -2.45154       -0.38221
O          0.93409       -0.55151        0.80753
C          1.86371       -2.96843        1.26866
H          1.13486       -3.09468        2.06940
H          2.04443       -3.91643        0.76181
H          2.79589       -2.55309        1.65225
S         -2.56304        0.03355       -0.21918
O         -3.94456        0.38875       -0.46709
O         -1.52565        1.02961       -0.50344
O         -2.26838       -1.28411       -1.03263
H         -1.36300       -1.68802       -0.81464
C         -2.35885       -0.47001        1.47650
H         -2.64362        0.38073        2.09728
H         -3.01618       -1.31907        1.66277
H         -1.30692       -0.72257        1.62512
N          1.46549        1.97525        2.21906
H          1.59263        0.97938        2.05080
C          0.05207        2.23781        2.49442
H         -0.34385        1.71024        3.37447
H         -0.10131        3.31085        2.64582
H         -0.54034        1.93632        1.62538
H          2.03728        2.23043        3.01695
N          1.33121        1.55195       -1.07315
C          0.79995        2.92493       -0.87308
H         -0.28420        2.89139       -0.96781
H          1.08810        3.24722        0.12827
H          1.23625        3.57744       -1.63287
C          2.80502        1.50792       -0.88064
H          3.02002        1.89979        0.11370
H          3.12500        0.46898       -0.96554
H          3.27429        2.12484       -1.65028
C          0.93650        0.99214       -2.39470
H          1.33382       -0.02090       -2.46838
H         -0.15132        0.97896       -2.44592
H          1.35490        1.62865       -3.17751
H          0.92599        0.92640       -0.34573
