35
2msa1ma1dma_132.log	Energy: -978623.2696149
S          0.13906       -1.93651       -0.16932
O          1.51312       -2.20378       -0.67894
O         -0.80865       -1.47633       -1.19407
O          0.21174       -1.01113        1.01401
H         -0.46208        0.37091        1.08609
C         -0.47289       -3.48215        0.46978
H         -0.52245       -4.19208       -0.35603
H          0.21296       -3.83230        1.24095
H         -1.46473       -3.30235        0.88586
S         -0.46174        2.28070        0.03446
O         -0.83348        3.61677        0.44171
O         -0.85844        1.29877        1.20263
O          0.95278        2.04090       -0.31947
H          2.06672        0.78171       -0.09936
C         -1.45071        1.75001       -1.33781
H         -2.49349        1.69098       -1.01885
H         -1.30943        2.48402       -2.13218
H         -1.10783        0.75741       -1.63699
N         -3.72300       -0.52202       -0.62212
H         -4.51777       -0.95080       -1.08307
C         -3.78550       -0.73304        0.82112
H         -3.79048       -1.79059        1.13264
H         -2.92805       -0.24477        1.29120
H         -4.68690       -0.26204        1.22398
H         -2.87989       -0.94965       -0.99793
N          2.84237        0.08957       -0.03016
C          3.26125       -0.00585        1.38457
C          3.91407        0.47815       -0.96833
H          2.42151       -0.82701       -0.32182
H          3.61760        0.96869        1.72173
H          2.39269       -0.31459        1.96596
H          4.05544       -0.74873        1.47381
H          4.30920        1.45384       -0.68227
H          4.70704       -0.27052       -0.94092
H          3.49320        0.53371       -1.97204
