30
2msa1eda_80.log	Energy: -953202.2293872
S         -2.20049       -0.82827        0.07042
O         -2.23931        0.00823        1.27675
O         -1.03792       -1.76905        0.01485
O         -2.28858       -0.01657       -1.18713
H         -1.45315        1.34193       -1.13604
C         -3.63774       -1.87909        0.07441
H         -4.52092       -1.24049        0.09778
H         -3.62142       -2.48842       -0.82899
H         -3.59072       -2.50452        0.96606
S          2.34254       -0.75417        0.05980
O          1.98654       -0.80275        1.46795
O          3.23523        0.30300       -0.40351
O          1.04646       -0.64557       -0.83215
H          0.22528       -1.14097       -0.44388
C          3.02855       -2.32583       -0.41656
H          3.96181       -2.45365        0.13280
H          2.31361       -3.10359       -0.14675
H          3.20964       -2.31025       -1.49093
H         -1.09516        3.87731        0.35753
H         -1.78790        2.31588        0.91503
H          0.54687        2.82590        1.86357
H          0.40568        1.29096        1.02242
H          1.80445        3.65760        0.07035
H          2.15969        2.06593       -0.17155
H         -1.63536        2.92723       -1.64732
H         -0.06935        2.36905       -1.39804
C         -0.98337        2.78979        0.35059
C          0.39437        2.37407        0.87769
N         -1.05437        2.32828       -1.06691
N          1.40351        2.74560       -0.11258
