43
2msa1eda1tma_275.log	Energy: -1062665.3794148
S         -4.10336       -0.45931        0.36270
O         -5.53383       -0.66074        0.47902
O         -3.45315        0.53792        1.21816
O         -3.78222       -0.10470       -1.14490
H         -2.93587        0.47569       -1.23256
C         -3.27264       -2.01437        0.59033
H         -3.43852       -2.31622        1.62536
H         -3.71866       -2.73433       -0.09590
H         -2.20857       -1.88372        0.37816
S          1.00327       -0.91434       -0.41714
O         -0.22535       -1.69788       -0.57719
O          1.33614       -0.55193        0.98810
O          0.98302        0.35072       -1.26255
H          0.82038        1.54222       -0.24925
C          2.35790       -1.87539       -1.05127
H          2.38570       -2.80778       -0.48555
H          2.15754       -2.07582       -2.10413
H          3.28693       -1.31151       -0.91870
H         -1.15196        3.46667       -0.80726
H         -2.66820        2.81788       -0.16415
H         -1.22096        2.63608        1.66104
H         -1.25065        1.00369        0.99605
H          0.93169        2.98434        0.70494
H          0.96362        1.42790        1.35666
H         -1.99323        1.95355       -2.39228
H         -0.84672        1.03663       -1.65088
C         -1.64999        2.54907       -0.45721
C         -0.95309        2.03268        0.79260
N         -1.73555        1.52530       -1.50792
N          0.53695        2.04799        0.65436
N          4.98696       -0.09837        0.13125
C          6.38607       -0.00895       -0.24400
H          6.81983       -1.01140       -0.30215
H          6.47849        0.45973       -1.22837
H          6.98183        0.58314        0.47758
C          4.35802        1.20873        0.14830
H          4.44157        1.67555       -0.83782
H          3.29720        1.08529        0.38318
H          4.81208        1.88857        0.89690
C          4.81409       -0.77980        1.40468
H          3.74716       -0.88030        1.62433
H          5.25244       -1.78071        1.34640
H          5.30066       -0.24001        2.24001
