25
2msa1ma_41.log	Energy: -893797.9742014
S         -2.42058       -0.41560       -0.12736
O         -1.01935       -0.58239       -0.62198
O         -3.45809       -0.61648       -1.13318
O         -2.52792        0.89110        0.61725
C         -2.64879       -1.67288        1.12489
H         -2.56953       -2.64784        0.64248
H         -1.87980       -1.55309        1.88895
H         -3.64170       -1.54332        1.55642
S          2.35375       -0.35919       -0.01267
O          2.22598        0.55888       -1.13217
O          1.87938        0.11571        1.28702
O          3.90805       -0.78275        0.16452
H          4.36419       -0.10475        0.68488
C          1.68766       -1.94283       -0.41557
H          0.61615       -1.76959       -0.57584
H          2.17805       -2.28947       -1.32518
H          1.87230       -2.61366        0.42284
N         -0.18619        1.95001        0.16365
H          0.47214        1.56873        0.85041
H         -0.01349        1.40708       -0.68902
C         -0.02698        3.40074       -0.04075
H         -0.76369        3.73487       -0.77072
H         -0.19724        3.91576        0.90443
H          0.97827        3.61267       -0.40570
H         -1.17857        1.64640        0.44797
