40
2msa1dma1eda_384.log	Energy: -1038012.3389399
S          0.02737        2.23268       -0.44299
O          0.86644        3.41093       -0.45349
O         -0.72957        2.19436        0.93189
O          0.68429        0.93314       -0.67414
H          0.70765       -0.60404        0.14631
C         -1.27064        2.37696       -1.64871
H         -1.84798        3.27167       -1.41574
H         -0.78800        2.47125       -2.62220
H         -1.87972        1.47017       -1.60208
S         -2.70547       -0.81193        0.36423
O         -1.93114       -1.84198        1.11683
O         -2.33799       -0.75490       -1.06389
O         -2.64521        0.52829        1.02387
H         -1.46392        1.48164        0.97000
C         -4.41163       -1.30531        0.48239
H         -4.51201       -2.28413        0.01338
H         -4.67954       -1.35115        1.53777
H         -5.01495       -0.56255       -0.03946
N          3.80246       -0.32947        1.32246
C          4.07396        0.65106        0.28103
C          2.84701        0.14658        2.30857
H          3.48974       -1.19893        0.90226
H          4.55810        1.52710        0.72570
H          4.77417        0.22884       -0.44762
H          3.17269        1.00192       -0.24657
H          3.28690        0.97650        2.87147
H          1.90031        0.52054        1.87883
H          2.62210       -0.65055        3.02423
H          0.35839       -3.28106       -1.02294
H         -0.16891       -1.72343       -1.69058
H          1.98149       -2.44259       -2.75286
H          2.20576       -0.96454       -1.80601
H          3.00595       -3.65812       -0.95574
H          3.93434       -2.32509       -1.09898
H         -0.33272       -1.80012        0.70823
H          1.37597       -2.00199        0.78922
C          0.61557       -2.22243       -1.11898
C          1.99449       -2.03613       -1.73302
N          0.59786       -1.63158        0.24232
N          3.00208       -2.64704       -0.86230
