38
2msa2dma_192.log	Energy: -1003273.1899057
S         -1.12869        0.00597        0.76695
O         -2.24227       -0.10034        1.70610
O          0.22507       -0.00873        1.43059
O         -1.20437        1.21596       -0.12224
H          0.04271        2.09495       -0.11390
C         -1.17674       -1.39933       -0.32352
H         -1.06028       -2.29718        0.28557
H         -2.15955       -1.39114       -0.80478
H         -0.36040       -1.30860       -1.04214
S          2.88718       -1.01239       -0.26469
O          3.59348        0.19135        0.17181
O          2.05647       -0.87711       -1.46046
O          2.05516       -1.62463        0.91630
H          1.26904       -0.98993        1.16634
C          4.06431       -2.32034       -0.50083
H          4.73484       -2.00221       -1.29951
H          4.61072       -2.46096        0.43123
H          3.52588       -3.22450       -0.78325
N          0.84342        2.81221       -0.20354
C          1.55250        2.56398       -1.48281
C          1.71669        2.76565        0.99693
H          0.37604        3.71715       -0.24453
H          1.96975        1.55756       -1.45603
H          0.83150        2.63767       -2.29716
H          2.34980        3.29863       -1.60862
H          2.26649        1.82526        0.98669
H          2.41412        3.60522        0.96699
H          1.08822        2.81348        1.88564
N         -4.44634       -0.65861       -0.42949
C         -5.69410       -1.39795       -0.38775
C         -4.58068        0.64935       -1.04894
H         -4.06782       -0.54611        0.50763
H         -6.02227       -1.62122       -1.40968
H         -5.54438       -2.34936        0.13040
H         -6.51526       -0.85444        0.11434
H         -4.81838        0.52793       -2.11260
H         -5.37494        1.27003       -0.59572
H         -3.63136        1.18506       -0.96702
