34
2msa1a1eda_47.log	Energy: -988710.2754751
S         -2.12009        1.33424       -0.20611
O         -1.32891        0.94481        1.01576
O         -3.34006        2.07491        0.08830
O         -2.31058        0.12539       -1.06468
H         -1.07033       -0.97071       -0.90171
C         -1.03520        2.40804       -1.14161
H         -0.90631        3.33720       -0.58351
H         -0.07430        1.91056       -1.29394
H         -1.51729        2.61615       -2.09720
S          2.70074       -0.10646       -0.20656
O          2.11333       -1.00702       -1.22951
O          2.36822       -0.52476        1.18525
O          2.38523        1.33013       -0.43829
H          1.51095        2.05905        1.03557
C          4.46675       -0.27242       -0.38491
H          4.72804       -1.31469       -0.20191
H          4.73085        0.01914       -1.40152
H          4.94903        0.38089        0.34230
N          0.99542        1.74890        1.87825
H         -0.00560        1.52210        1.58006
H          1.03642        2.41790        2.63986
H          1.46612        0.85512        2.09988
H         -0.12636       -3.37374        0.55683
H          0.02372       -1.73817        1.23141
H         -2.13491       -3.10697        1.83775
H         -2.34164       -1.42464        1.33523
H         -3.59950       -3.51026        0.17462
H         -3.30288       -2.09064       -0.58764
H          0.52227       -1.58021       -1.03815
H         -0.84718       -2.50581       -1.45633
C         -0.57122       -2.37586        0.57549
C         -2.04324       -2.42032        0.99143
N         -0.46407       -1.82472       -0.80053
N         -2.86448       -2.88577       -0.13000
