38
2msa2dma_116.log	Energy: -1003283.2882963
S          3.19395       -0.36876        0.38519
O          4.30102       -1.06887        1.00484
O          3.25364        1.07679        0.20181
O          1.89191       -0.73140        1.22417
H          1.15636       -0.06203        1.05635
C          2.85121       -1.11206       -1.19716
H          3.71425       -0.91751       -1.83532
H          2.72029       -2.18385       -1.04669
H          1.95036       -0.64640       -1.60420
S         -0.35920        1.47180       -0.54746
O          0.05215        0.59030       -1.65303
O         -0.11241        0.85169        0.79911
O         -1.78476        1.91112       -0.62945
H         -2.64500        0.85045        0.30397
C          0.63985        2.94042       -0.61703
H          1.67797        2.63148       -0.48040
H          0.48643        3.40460       -1.59151
H          0.32153        3.60590        0.18537
N         -3.13833        0.07057        0.81332
C         -4.57945        0.12921        0.51318
C         -2.80902        0.12879        2.25150
H         -2.73941       -0.83109        0.39605
H         -5.00087        1.05468        0.90933
H         -4.71438        0.10661       -0.56884
H         -5.08431       -0.72657        0.96666
H         -3.23489        1.03527        2.68560
H         -3.22118       -0.74927        2.75352
H         -1.72337        0.15687        2.34352
N         -2.16342       -2.23706       -0.41334
C         -0.76455       -2.48518       -0.03984
C         -2.30260       -1.93868       -1.84503
H         -2.71208       -3.06396       -0.19444
H         -0.17683       -1.59742       -0.27607
H         -0.68965       -2.66674        1.03469
H         -0.33666       -3.34290       -0.57750
H         -1.75187       -1.02034       -2.06892
H         -1.90670       -2.74307       -2.48054
H         -3.35891       -1.78990       -2.08755
