28
2msa1dma_25.log	Energy: -918465.5083064
S         -2.81312       -0.48727       -0.17341
O         -3.98822       -1.28455       -0.45885
O         -2.52248        0.69616       -0.97604
O         -1.56218       -1.47180       -0.23833
H         -0.71173       -0.95324       -0.34996
C         -2.83464       -0.00202        1.53978
H         -3.67429        0.68278        1.66608
H         -2.97552       -0.89878        2.14293
H         -1.88768        0.49381        1.76544
S          0.92128        1.14631        0.15308
O          0.22288        1.30030        1.42965
O          0.71911       -0.20101       -0.48096
O          2.40376        1.40526        0.23546
H          3.17039        0.12037        0.15501
C          0.27838        2.35106       -0.98447
H         -0.78417        2.13510       -1.11224
H          0.43622        3.33743       -0.54774
H          0.81281        2.25172       -1.92914
N          3.66773       -0.84786        0.09387
C          3.52707       -1.35349       -1.29316
C          3.06110       -1.73580        1.11603
H          4.65096       -0.69290        0.31133
H          2.46010       -1.40247       -1.51192
H          4.00570       -0.64814       -1.97277
H          3.99220       -2.33712       -1.37973
H          2.00031       -1.83038        0.88272
H          3.55017       -2.71123        1.09667
H          3.17536       -1.27000        2.09498
