37
2msa1ma1eda_228.log	Energy: -1013360.3346588
S          0.08471        2.19063        0.24619
O         -0.74618        1.45600        1.25514
O         -0.33231        1.89606       -1.13922
O          1.53400        1.96290        0.48270
C         -0.20910        3.92079        0.55311
H         -1.26823        4.11728        0.38560
H          0.06441        4.13308        1.58654
H          0.40584        4.49742       -0.13795
S         -2.46453       -1.12899       -0.41903
O         -3.48297       -2.15251       -0.31855
O         -1.05937       -1.56728       -0.47771
O         -2.65278       -0.14682        0.79119
H         -1.86607        0.49580        0.92547
C         -2.76862       -0.10521       -1.83961
H         -2.66419       -0.73738       -2.72234
H         -3.78551        0.27918       -1.75925
H         -2.03015        0.70105       -1.83461
N          1.02731       -2.48941        1.64124
H          0.17694       -2.79665        1.17414
C          0.69192       -1.51289        2.68644
H          0.01336       -1.90341        3.45480
H          1.61161       -1.17456        3.17104
H          0.21754       -0.63927        2.23010
H          1.47386       -3.30748        2.04044
H          2.29604       -1.68365       -2.08216
H          2.05061        0.06284       -2.29340
H          4.45994       -0.40448       -2.20012
H          3.95991        0.53835       -0.79254
H          4.57831       -2.32582       -0.77097
H          5.18680       -1.13716        0.17708
H          0.59410       -0.78374       -0.60556
H          1.80034       -1.42961        0.30019
C          2.42545       -0.70444       -1.61194
C          3.88479       -0.44711       -1.26366
N          1.59682       -0.66824       -0.39179
N          4.35760       -1.44802       -0.31349
H          1.69959        0.25798        0.07293
