37
2msa1ma1eda_355.log	Energy: -1013357.0553759
S          0.30967       -1.85752        0.43578
O         -0.81224       -2.75317        0.15350
O          0.34756       -0.64855       -0.46534
O          1.66081       -2.49628        0.41231
H          2.68139       -1.53015       -0.39931
C          0.08761       -1.22397        2.08671
H         -0.88481       -0.73101        2.12516
H          0.13536       -2.06687        2.77677
H          0.87505       -0.49743        2.28944
S         -2.83380        0.67537       -0.29600
O         -3.77740        1.66773       -0.76786
O         -2.17108        0.87486        0.99593
O         -1.72395        0.51078       -1.41319
H         -0.92449        0.00715       -1.04069
C         -3.61027       -0.92523       -0.26558
H         -4.36932       -0.89995        0.51715
H         -4.06822       -1.09247       -1.24043
H         -2.84605       -1.67834       -0.05459
N          3.33310       -0.84096       -0.87591
H          3.33463        0.04728       -0.27982
C          2.88495       -0.55557       -2.25752
H          3.54378        0.18530       -2.71256
H          2.89437       -1.47560       -2.84227
H          1.86408       -0.18188       -2.19819
H          4.26991       -1.23844       -0.86354
H          2.92186        3.56311        0.67902
H          3.14150        2.80038       -0.90304
H          0.75296        3.33280       -0.49131
H          0.99796        1.58798       -0.64210
H          0.48754        3.01599        1.83512
H         -0.24486        1.68820        1.23251
H          4.21926        1.68412        1.11607
H          2.68978        1.23476        1.50492
C          2.71189        2.65601        0.09439
C          1.20118        2.45409       -0.00763
N          3.30907        1.46395        0.72269
N          0.65393        2.16051        1.31469
