40
2msa1dma1eda_166.log	Energy: -1038024.5471115
S          2.37992        0.50183       -0.84824
O          3.76295        0.91104       -1.08027
O          1.69882        1.20165        0.27994
O          2.20677       -0.98846       -0.68600
H          1.58465       -1.31366        0.73218
C          1.44272        0.90863       -2.31509
H          1.53801        1.98288       -2.48124
H          1.87460        0.36180       -3.15414
H          0.39970        0.62650       -2.15596
S         -1.97255       -1.21848       -0.66737
O         -3.32662       -1.74629       -0.80939
O         -1.53321       -1.07041        0.75671
O         -1.74741        0.06875       -1.41665
H         -2.15963        1.39911       -0.80682
C         -0.83321       -2.36125       -1.42950
H          0.18559       -1.97655       -1.32248
H         -0.95497       -3.32861       -0.93924
H         -1.10063       -2.44523       -2.48325
N          1.01578       -1.56218        1.59896
C          1.46240       -0.74630        2.74459
C          1.08414       -3.01719        1.82347
H          0.03725       -1.30912        1.33111
H          2.47144       -1.05104        3.02846
H          1.48255        0.29508        2.42287
H          0.77899       -0.89062        3.58401
H          2.11620       -3.30062        2.03590
H          0.43854       -3.29381        2.65901
H          0.74947       -3.52596        0.91947
H         -2.95691        2.99848        1.59336
H         -2.93586        1.21819        1.39066
H         -0.90206        2.13230        2.67141
H         -0.52520        1.17429        1.22886
H         -0.10447        4.00840        1.53108
H          0.67919        2.86148        0.62212
H         -3.29386        2.67460       -0.70310
H         -1.64610        3.01125       -0.49081
C         -2.42612        2.15228        1.14857
C         -0.95565        2.11613        1.57667
N         -2.41393        2.33239       -0.32733
N         -0.23193        3.20596        0.92683
