43
2msa1eda1tma_233.log	Energy: -1062669.8717676
S          0.99861        2.28282        0.07513
O          2.35062        1.69471       -0.05200
O          0.62128        2.66932        1.44226
O         -0.02917        1.38521       -0.56818
C          0.98965        3.77094       -0.91723
H          1.74555        4.44562       -0.51405
H          1.22345        3.50457       -1.94831
H          0.00073        4.22524       -0.84705
S         -3.08485       -0.52741       -0.58362
O         -2.00629       -1.44681       -0.92771
O         -3.38801       -0.25567        0.80737
O         -4.43288       -1.13325       -1.26559
H         -4.21095       -1.99574       -1.64459
C         -2.91342        1.00022       -1.45677
H         -1.98755        1.45377       -1.08119
H         -2.83013        0.77864       -2.52039
H         -3.79102        1.60888       -1.23921
H          1.41263       -1.54568        2.43164
H          1.55954        0.17141        1.96326
H         -0.18764       -0.11520        3.73629
H         -0.87748        0.47027        2.22913
H         -1.29539       -2.12663        3.43038
H         -2.24684       -1.28716        2.37469
H          1.42699       -1.44683        0.07441
H         -0.20223       -1.72739        0.58612
C          0.89612       -0.69530        1.97581
C         -0.41104       -0.39935        2.70161
N          0.57744       -1.06012        0.57432
N         -1.29533       -1.55990        2.59218
H          0.26643       -0.20829        0.05148
N          2.96143       -1.78278       -0.71473
C          3.98057       -1.19657        0.15640
H          3.73112       -0.14933        0.34589
H          4.00595       -1.73873        1.10708
H          4.98318       -1.25039       -0.30043
C          3.22210       -3.19387       -0.96613
H          3.24865       -3.74022       -0.01855
H          2.42473       -3.61338       -1.58655
H          4.18431       -3.35000       -1.48340
C          2.85360       -1.02666       -1.96306
H          2.04109       -1.43734       -2.57027
H          2.63188        0.01789       -1.72876
H          3.78809       -1.07546       -2.54719
