40
2msa1dma1eda_288.log	Energy: -1038019.2438344
S          1.51164       -1.73582        0.38705
O          2.39032       -0.99475        1.29636
O          1.60032       -1.29177       -1.03348
O          0.07942       -1.73797        0.85005
C          2.01598       -3.44514        0.40537
H          3.05623       -3.49380        0.08280
H          1.91196       -3.81427        1.42586
H          1.37272       -4.00216       -0.27582
S         -2.72662       -0.23165       -0.50627
O         -2.19167        0.72386       -1.48731
O         -2.84728        0.24986        0.86395
O         -1.93687       -1.57536       -0.57240
H         -1.06448       -1.61806        0.01849
C         -4.30808       -0.78135       -1.09755
H         -4.95401        0.09588       -1.14300
H         -4.17302       -1.21626       -2.08740
H         -4.69757       -1.51559       -0.39307
N          0.25750        2.01150        1.74712
C          0.00860        0.94955        2.73121
C         -0.83731        2.98244        1.69040
H          1.11680        2.49046        2.00282
H         -0.87063        0.38161        2.42052
H          0.86205        0.27062        2.75029
H         -0.16893        1.36113        3.73604
H         -1.74528        2.46577        1.36737
H         -1.03513        3.45525        2.66354
H         -0.60305        3.76699        0.96360
H          1.31710        2.35599       -2.56191
H          1.05181        3.29427       -1.07026
H          3.41327        3.02214       -1.30262
H          2.91909        1.93520        0.00367
H          4.44812        1.00454       -1.76735
H          3.08967        0.11413       -1.57812
H         -0.42814        1.29945       -1.30789
H          0.90654        0.32799       -1.11398
C          1.40980        2.34267       -1.47400
C          2.86379        2.10059       -1.08550
N          0.52948        1.28000       -0.92966
N          3.44100        1.02285       -1.87655
H          0.44793        1.41425        0.13056
