40
2msa1dma1eda_184.log	Energy: -1038021.8277427
S         -2.57366       -0.38330        0.44153
O         -2.52924       -1.54139       -0.45877
O         -3.08544        0.87403       -0.12383
O         -1.21799       -0.15020        1.10105
C         -3.64455       -0.81693        1.80318
H         -4.64275       -0.98178        1.39636
H         -3.26242       -1.72819        2.26361
H         -3.65002        0.00674        2.51702
S          1.15055       -1.80869       -0.69845
O          2.56435       -2.15905       -0.67275
O          0.77408       -0.56246       -1.36319
O          0.67153       -1.76809        0.80387
H         -0.16503       -1.17384        0.92327
C          0.19477       -3.12757       -1.39990
H          0.47667       -3.21086       -2.45006
H          0.43055       -4.04407       -0.85917
H         -0.85695       -2.85016       -1.28986
N          3.06294        0.77332        0.78398
C          3.07206        0.37382        2.19124
C          4.16316        1.66932        0.43848
H          3.12804       -0.06782        0.21180
H          2.87606        1.24874        2.82076
H          2.28415       -0.36403        2.35687
H          4.03281       -0.06277        2.49990
H          4.04772        2.61643        0.97651
H          5.14816        1.25117        0.69244
H          4.14042        1.87841       -0.63419
H          1.13856        3.33901       -1.16170
H          0.95532        1.71341       -1.88317
H         -0.92408        3.37105       -2.48192
H         -1.45623        1.83800       -1.78406
H         -1.93056        4.37358       -0.71680
H         -2.35625        2.89823       -0.11670
H          1.50328        1.48878        0.42870
H          0.16770        2.54246        0.81075
C          0.51787        2.43864       -1.19689
C         -0.92696        2.77112       -1.56589
N          0.53434        1.84340        0.16040
N         -1.57954        3.46284       -0.45258
H         -0.11596        1.03932        0.23552
