35
2msa1a1tma_16.log	Energy: -978628.3361766
S         -0.83378       -2.18762       -0.04826
O          0.64199       -1.96132       -0.23377
O         -1.64145       -1.43415       -1.01875
O         -1.23880       -1.96381        1.36640
H         -1.04072       -0.32532        1.78589
C         -1.07372       -3.92481       -0.35901
H         -0.44985       -4.48972        0.33328
H         -2.12896       -4.14694       -0.19949
H         -0.78934       -4.12390       -1.39226
S          2.57987        0.79851       -0.04684
O          1.88439        0.95810        1.24000
O          3.19290        1.97075       -0.63437
O          1.59875        0.18788       -1.10713
H          1.14837       -0.68190       -0.77253
C          3.79478       -0.48186        0.17958
H          3.27803       -1.38332        0.51282
H          4.29479       -0.64396       -0.77512
H          4.50067       -0.13338        0.93395
N         -0.82210        0.69596        1.87393
H         -1.03944        1.02305        2.81048
H         -1.38443        1.24816        1.12762
H          0.18964        0.81917        1.68916
N         -2.18879        2.03023       -0.09878
C         -3.44941        1.31280       -0.30224
H         -3.23208        0.26553       -0.52603
H         -4.05385        1.36763        0.60875
H         -4.02935        1.74668       -1.13247
C         -2.42110        3.42897        0.24880
H         -3.02697        3.49120        1.15817
H         -1.46438        3.92739        0.42957
H         -2.94675        3.96805       -0.55588
C         -1.32916        1.91563       -1.28219
H         -0.36385        2.39022       -1.08713
H         -1.16306        0.85980       -1.50435
H         -1.79022        2.39999       -2.15754
