32
2msa2ma_252.log	Energy: -953947.4327501
S          1.60731        0.42352        0.20585
O          0.80946       -0.34547       -0.78563
O          2.62970        1.28304       -0.46520
O          2.26059       -0.46980        1.21846
H          3.91135       -0.53943        0.86814
C          0.49504        1.48993        1.07614
H         -0.03286        2.10591        0.33630
H         -0.22026        0.85898        1.60766
H          1.08412        2.09344        1.76714
S         -2.44540       -1.06716        0.00354
O         -2.87405       -0.23293       -1.11302
O         -2.23797       -0.41829        1.29359
O         -1.17064       -1.91214       -0.39283
H         -0.36340       -1.30565       -0.52341
C         -3.60248       -2.40140        0.20161
H         -4.54992       -1.94879        0.49554
H         -3.70152       -2.91808       -0.75242
H         -3.23445       -3.06938        0.97959
N          4.67017       -0.24726        0.19387
H          4.18239        0.59353       -0.20890
C          4.86499       -1.28129       -0.84786
H          5.56680       -0.91912       -1.59860
H          5.23924       -2.19647       -0.39018
H          3.89568       -1.46899       -1.31013
H          5.52835        0.00725        0.67561
N         -1.80172        2.69586       -0.90511
H         -1.86673        3.38887       -1.64235
C         -2.80695        2.93668        0.12781
H         -3.84505        2.92942       -0.23649
H         -2.71901        2.15945        0.89215
H         -2.61848        3.90356        0.60590
H         -1.96622        1.78479       -1.32640
