40
2msa1dma1eda_268.log	Energy: -1038016.8878690
S          1.59138       -2.03030        0.37732
O          0.28933       -2.36044       -0.22644
O          1.51904       -1.34726        1.66503
O          2.48443       -1.26163       -0.63061
C          2.51036       -3.54144        0.53945
H          1.93626       -4.19634        1.19530
H          2.62173       -3.98508       -0.44962
H          3.48037       -3.30599        0.97626
S          1.32573        2.08690       -0.48028
O          1.01183        2.58427        0.86355
O          0.15872        1.45954       -1.16299
O          2.52990        1.18689       -0.52267
H          2.44578       -0.19228       -0.55480
C          1.80195        3.48266       -1.48140
H          0.97223        4.18984       -1.48935
H          2.68647        3.93287       -1.03068
H          2.01862        3.12628       -2.48828
N         -3.37449       -0.92862       -1.16651
C         -3.58406       -2.36161       -0.99259
C         -2.58268       -0.61473       -2.35503
H         -4.26447       -0.44392       -1.20149
H         -2.61493       -2.84536       -0.83106
H         -4.20695       -2.53998       -0.11196
H         -4.05975       -2.83870       -1.86381
H         -1.58611       -1.05520       -2.24633
H         -3.02936       -1.00263       -3.28319
H         -2.45765        0.46711       -2.44270
H         -1.78039       -0.28478        2.59701
H         -0.24987        0.54550        2.23670
H         -1.89427        2.19782        2.99914
H         -1.46880        2.47164        1.31363
H         -3.97781        1.28754        2.27364
H         -3.76922        2.55328        1.26339
H         -0.83903       -0.99996        0.48663
H         -2.28491       -0.23476        0.16857
C         -1.29520        0.44372        1.94023
C         -1.99918        1.78980        1.98424
N         -1.32354       -0.09529        0.56275
N         -3.38635        1.65578        1.53576
H         -0.81419        0.54309       -0.09014
