43
2msa1eda1tma_191.log	Energy: -1062671.4291143
S         -1.61021       -1.63073       -0.90060
O         -2.61921       -0.95261       -0.03025
O         -0.59558       -2.36495       -0.10644
O         -1.00785       -0.69570       -1.88193
C         -2.52245       -2.85063       -1.83032
H         -3.28471       -2.33524       -2.41480
H         -1.82300       -3.37298       -2.48347
H         -2.97888       -3.54335       -1.12315
S          2.80451       -0.08370       -0.32055
O          3.36500        1.00925       -1.09843
O          1.91035        0.21432        0.78887
O          4.05236       -0.90242        0.31992
H          4.87057       -0.48908        0.00905
C          2.07172       -1.29975       -1.36989
H          1.17930       -0.85054       -1.81884
H          2.81002       -1.58352       -2.11954
H          1.75094       -2.14012       -0.75268
H          0.03673        1.15625        3.13983
H         -1.73608        1.26583        3.13109
H         -0.92832       -0.69089        4.45191
H         -1.95724       -1.17747        3.10922
H         -0.15275       -2.01149        1.93392
H          0.96917       -1.31651        2.93494
H         -0.90859        1.59998        0.85854
H          0.00921        0.21361        1.00226
C         -0.88185        0.66555        2.80466
C         -0.97438       -0.76384        3.35851
N         -0.86378        0.64817        1.32678
N          0.02932       -1.69301        2.88407
H         -1.64817        0.07839        0.92978
N         -1.03833        2.86119       -0.35446
C         -0.90103        4.23216        0.11977
H         -1.67565        4.44818        0.86160
H          0.07766        4.36325        0.59012
H         -0.99231        4.96465       -0.70019
C          0.02225        2.51541       -1.30338
H          0.99920        2.62233       -0.82434
H         -0.11184        1.47788       -1.62348
H         -0.00409        3.16374       -2.19482
C         -2.35521        2.62381       -0.94657
H         -2.43888        1.57328       -1.23840
H         -3.13410        2.84576       -0.21079
H         -2.52217        3.25532       -1.83469
