40
2msa1dma1eda_397.log	Energy: -1038014.5588550
S          2.49884        0.54898       -0.24461
O          2.16789        0.31797        1.17314
O          1.73256        1.58182       -0.92697
O          2.45399       -0.80062       -1.02635
H          1.53797       -1.30290       -0.87316
C          4.22871        0.92330       -0.35521
H          4.38158        1.87099        0.16171
H          4.78809        0.11985        0.12244
H          4.48645        1.01362       -1.41017
S         -1.06935       -1.69044       -1.03044
O         -1.67035       -2.84477       -1.67746
O          0.33392       -1.94364       -0.51365
O         -1.87004       -1.11753        0.10126
H         -0.90846       -0.85676        1.39846
C         -0.90596       -0.38403       -2.23428
H         -0.35588       -0.78250       -3.08755
H         -1.91022       -0.07643       -2.52889
H         -0.37291        0.45684       -1.78600
N         -0.20695       -0.76679        2.18324
C          0.11730       -2.12743        2.66643
C         -0.71540        0.14829        3.22369
H          0.64315       -0.35886        1.75175
H         -0.78287       -2.57879        3.08600
H          0.45982       -2.70928        1.81097
H          0.89735       -2.06516        3.42691
H         -1.64248       -0.25474        3.63385
H          0.02994        0.24890        4.01430
H         -0.90472        1.12147        2.77146
H         -0.85332        1.38208        0.33579
H         -0.85166        2.95007        1.16062
H         -2.96056        1.82394        1.58910
H         -3.25206        3.24403        0.56930
H         -3.18843        0.46270       -0.34104
H         -4.42071        1.54438       -0.47857
H         -0.10053        3.02356       -1.19112
H         -1.65454        2.70581       -1.63321
C         -1.30455        2.39138        0.33095
C         -2.80183        2.24584        0.58133
N         -1.07042        3.11364       -0.90813
N         -3.41267        1.44609       -0.47786
