40
2msa1dma1eda_20.log	Energy: -1038036.6844310
S         -2.68827       -1.01443       -0.06259
O         -2.11371       -0.81966        1.28327
O         -1.88511       -1.96229       -0.88699
O         -2.94786        0.27533       -0.76739
H         -1.85603        1.46663       -0.34114
C         -4.28972       -1.77666        0.13151
H         -4.91007       -1.11679        0.73832
H         -4.72600       -1.91453       -0.85793
H         -4.14972       -2.73693        0.62821
S          2.15523        1.38963       -0.17087
O          1.29117        2.46183       -0.74222
O          2.80612        0.53098       -1.17087
O          1.41053        0.60960        0.86811
H          0.87835       -0.97042        0.44844
C          3.45560        2.24386        0.70686
H          4.00450        2.85205       -0.01251
H          3.00364        2.87051        1.47586
H          4.11200        1.49786        1.15567
N         -1.32756        2.31269       -0.01443
C         -1.35358        2.33485        1.46368
C         -1.92350        3.50264       -0.65107
H         -0.33086        2.24141       -0.32750
H         -2.38911        2.40208        1.80062
H         -0.90982        1.40785        1.82315
H         -0.77982        3.19442        1.81504
H         -2.97337        3.57866       -0.36380
H         -1.37925        4.39344       -0.33323
H         -1.84613        3.39352       -1.73271
H          1.22997       -3.28441       -1.36904
H          1.73275       -1.59107       -1.63847
H          3.69002       -2.98326       -0.97716
H          3.33795       -1.71478        0.19573
H          2.75563       -4.56929        0.53380
H          3.50056       -3.54521        1.56913
H         -0.32462       -1.96558       -0.23093
H          0.74432       -2.56536        0.93820
C          1.63144       -2.38357       -0.89627
C          2.96728       -2.65609       -0.21908
N          0.65811       -1.94250        0.12980
N          2.76939       -3.61314        0.87214
