34
2msa1a1eda_283.log	Energy: -988695.7586522
S         -2.60500       -0.45693       -0.15140
O         -1.72931       -0.34736        1.04989
O         -2.15080       -1.46907       -1.11551
O         -2.81988        0.89854       -0.76390
H         -1.36190        1.64736       -0.72305
C         -4.21513       -0.96284        0.43129
H         -4.57120       -0.22705        1.15234
H         -4.88394       -1.01727       -0.42796
H         -4.10970       -1.94241        0.89833
S          2.12868       -1.32932       -0.13697
O          3.13720       -2.12031       -0.80638
O          1.66838       -0.09248       -0.80606
O          2.66422       -0.90714        1.29388
H          2.49078        0.08820        1.47544
C          0.71127       -2.32228        0.23583
H          1.06081       -3.20362        0.77372
H          0.00164       -1.73030        0.81971
H          0.24222       -2.58987       -0.71250
N          1.56209        2.47717       -2.47413
H          1.12759        2.46512       -3.39228
H          1.95830        1.55003       -2.31864
H          2.32898        3.14031       -2.51877
H         -0.01688        3.48691        0.84190
H         -1.34790        2.40560        1.32299
H          0.47706        2.05113        2.87724
H          0.20299        0.62645        1.88857
H          2.13949        1.80211        0.50072
H          2.52723        2.36880        1.99240
H          0.17425        2.37459       -1.14598
H          0.08958        0.91534       -0.43393
C         -0.32976        2.44300        0.93224
C          0.57881        1.65397        1.86460
N         -0.36126        1.84266       -0.43258
N          2.00805        1.65161        1.49878
