37
2msa1ma1eda_121.log	Energy: -1013363.0552324
S          1.89487       -1.34912        0.38191
O          2.73415       -0.50261       -0.48067
O          1.22841       -2.48863       -0.25761
O          0.89417       -0.49374        1.15492
H         -0.57009       -0.88694        0.99285
C          2.96586       -2.00762        1.64931
H          3.71693       -2.62545        1.15618
H          3.43566       -1.17515        2.17316
H          2.36262       -2.60709        2.33114
S         -2.07486       -0.97674       -0.59549
O         -3.47833       -0.58764       -0.55911
O         -1.58490       -0.98415        0.90889
O         -1.16457       -0.17275       -1.40582
H          0.25571        1.60912       -1.13347
C         -1.91627       -2.67358       -1.08544
H         -2.54682       -3.27676       -0.43252
H         -2.24794       -2.74274       -2.12202
H         -0.85956       -2.93422       -0.98613
N         -2.54242        2.31952        0.51040
H         -2.93861        3.21557        0.24349
C         -2.72002        2.08831        1.95076
H         -3.76424        2.15591        2.27786
H         -2.35099        1.08847        2.18831
H         -2.13150        2.81821        2.51437
H         -3.05526        1.60762       -0.01025
H          2.95166        1.96093        0.21122
H          3.09469        3.59668       -0.44823
H          1.11326        3.26150        1.14721
H          0.67056        3.89261       -0.45774
H          0.49890        1.04956        0.39071
H         -0.82257        2.08492        0.07436
H          2.93771        2.61425       -2.48127
H          2.59623        1.14678       -1.79965
C          2.48298        2.68889       -0.46035
C          1.09129        3.03737        0.07778
N          2.35962        2.13589       -1.80457
N          0.19409        1.88687       -0.14716
