34
2msa1a1eda_44.log	Energy: -988711.9511074
S         -1.97341       -1.34957        0.17702
O         -1.72939       -2.79149       -0.02104
O         -3.36780       -0.89511        0.17041
O         -1.13360       -0.56295       -0.82995
C         -1.29139       -0.92848        1.77353
H         -1.77254       -1.57193        2.51100
H         -0.21082       -1.07962        1.75114
H         -1.52051        0.11925        1.97708
S          2.73365        0.17038        0.14710
O          1.71929        0.11290        1.22188
O          2.48117        1.29720       -0.79594
O          2.91519       -1.13533       -0.55363
C          4.31041        0.50086        0.91155
H          4.24136        1.45845        1.42796
H          4.52135       -0.30322        1.61666
H          5.06799        0.53826        0.12887
N          0.72349       -2.39157       -1.45097
H          1.62517       -1.99966       -1.06175
H          0.02266       -1.60750       -1.45596
H          0.86195       -2.78038       -2.37849
H          0.28884       -3.08413       -0.83451
H         -0.83525        3.83907       -0.39323
H         -0.77194        2.92272       -1.91173
H         -3.13849        3.23000       -1.08726
H         -2.66639        1.53723       -1.26274
H         -3.25621        2.89064        1.19843
H         -3.33202        1.29104        0.79504
H          0.85110        1.90420       -0.47221
H         -0.23263        1.91163        0.80369
C         -1.03514        2.86753       -0.85303
C         -2.49442        2.44326       -0.67505
N         -0.15675        1.86221       -0.21210
N         -2.77189        2.13756        0.72640
H         -0.48710        0.89285       -0.45690
