42
2msa2eda_168.log	Energy: -1072759.9723539
S          2.63820        0.53780       -0.70481
O          1.83982       -0.39791       -1.52168
O          3.74538       -0.06164        0.04489
O          1.72618        1.33951        0.21050
C          3.33867        1.74266       -1.82238
H          4.01282        1.21184       -2.49503
H          2.53292        2.21143       -2.38831
H          3.88599        2.47947       -1.23430
S         -2.49155       -0.93528       -0.96670
O         -3.77130       -1.59713       -1.18437
O         -1.93297       -1.08946        0.41355
O         -2.51288        0.53190       -1.32399
H         -1.48833        1.47163       -0.72950
C         -1.28309       -1.67261       -2.05265
H         -1.21143       -2.72998       -1.79555
H         -1.63703       -1.55038       -3.07691
H         -0.31953       -1.17923       -1.90678
H          1.61339       -1.05662        3.40877
H          0.28620       -2.19154        3.04311
H          2.83917       -1.72126        1.41248
H          2.36272       -3.20099        2.24797
H          1.59263       -2.30664       -0.34643
H          1.25594       -3.76655        0.35585
H          1.00478        0.12790        1.32061
H         -0.23914       -0.97556        1.08788
C          1.05467       -1.54788        2.60821
C          1.98015       -2.34511        1.68250
N          0.35198       -0.51493        1.81183
N          1.24991       -2.76604        0.49280
H         -0.30124        0.08483        2.34185
H         -3.18658        2.39763        0.84062
H         -2.57311        3.20683        2.28559
H         -1.36960        4.04004        0.42393
H         -0.25586        3.07650        1.41092
H         -0.64301        2.81139       -1.25815
H          0.17647        1.75980       -0.28502
H         -2.63495        1.08033        2.98633
H         -2.26977        0.40851        1.54555
C         -2.32603        2.46466        1.52019
C         -1.13172        3.02779        0.75930
N         -2.03703        1.18576        2.17363
N         -0.75479        2.21680       -0.44020
