35
2msa1ma1dma_333.log	Energy: -978610.1921042
S          1.27811       -0.98863        0.98118
O          1.53571       -2.42474        1.01789
O          0.65783       -0.52442       -0.31762
O          2.50968       -0.14377        1.20167
H          3.06098        0.31050       -0.08473
C          0.15374       -0.55538        2.28224
H         -0.77636       -1.10189        2.11557
H          0.62045       -0.85460        3.22143
H         -0.03424        0.52359        2.25164
S         -2.75188       -0.23400       -0.46735
O         -2.56912        1.21246       -0.55717
O         -2.87209       -0.81814        0.86155
O         -1.63421       -0.97994       -1.29806
H         -0.71405       -0.85689       -0.86793
C         -4.16440       -0.69574       -1.44260
H         -5.03312       -0.23690       -0.96949
H         -4.02868       -0.31303       -2.45358
H         -4.25017       -1.78185       -1.43613
N         -0.82827        2.59358        1.62228
H         -1.67661        2.23829        1.18834
C          0.16620        2.85462        0.58783
H         -0.12824        3.61373       -0.15385
H          1.10594        3.17063        1.05499
H          0.35468        1.91813        0.05689
H         -1.06676        3.44104        2.12484
N          3.47585        0.53279       -1.07814
C          2.60778        1.51208       -1.77181
C          3.59655       -0.76383       -1.78807
H          4.40165        0.93097       -0.92939
H          1.60932        1.07879       -1.82983
H          2.56835        2.42899       -1.18330
H          3.00361        1.71691       -2.76864
H          2.59488       -1.18442       -1.88286
H          4.04626       -0.61108       -2.77101
H          4.20774       -1.43534       -1.18492
