37
2msa1ma1eda_90.log	Energy: -1013365.8842898
S          2.13459       -1.14938       -0.51716
O          2.05227       -2.60366       -0.31573
O          3.46464       -0.54042       -0.64132
O          1.35021       -0.44045        0.59365
H          1.95050        0.87421        1.05578
C          1.21965       -0.77929       -2.00449
H          1.71236       -1.29530       -2.82951
H          0.18999       -1.12083       -1.88439
H          1.22765        0.29865       -2.16705
S         -2.35992        0.16065       -0.49644
O         -1.68597        1.00666       -1.49341
O         -2.03046        0.50941        0.91264
O         -2.17630       -1.30772       -0.74768
H         -1.22776       -2.02852        0.35256
C         -4.11463        0.43790       -0.69478
H         -4.31297        1.49442       -0.51192
H         -4.38420        0.17002       -1.71661
H         -4.65106       -0.18479        0.02139
N         -0.55923       -2.27726        1.13382
H         -0.01491       -3.10179        0.87766
C         -1.27721       -2.39518        2.41610
H         -0.56598       -2.57747        3.22239
H         -1.80331       -1.45414        2.57974
H         -1.99431       -3.21464        2.36169
H          0.12726       -1.48947        1.13127
H          2.44292        3.74329        0.36335
H          2.60697        2.32418       -0.70720
H          0.32838        3.60147       -0.86445
H          0.21723        1.86711       -0.63155
H         -0.60615        3.85876        1.21211
H         -0.93155        2.24057        1.16587
H          3.17272        1.89933        1.68923
H          1.52472        2.21547        1.99370
C          2.04466        2.75295        0.12461
C          0.53511        2.79586       -0.15306
N          2.22883        1.88317        1.31370
N         -0.19014        2.94195        1.11078
