42
2msa2eda_199.log	Energy: -1072758.8588885
S         -3.26303        0.13250        0.30828
O         -3.33046       -0.96088       -0.67605
O         -3.64515        1.46590       -0.22374
O         -1.91669        0.20531        0.98410
H         -1.12218        1.72807        0.49224
C         -4.42195       -0.25555        1.60601
H         -5.41274       -0.33141        1.15748
H         -4.12459       -1.20578        2.05024
H         -4.39210        0.54207        2.34797
S          3.33498       -0.36550        0.42814
O          2.50514        0.48708        1.31145
O          3.58055        0.26116       -0.89637
O          2.77479       -1.74544        0.30767
H          1.11867       -1.43661        0.03483
C          4.92892       -0.55860        1.20519
H          5.37474        0.43015        1.31618
H          4.77762       -1.02614        2.17818
H          5.54525       -1.18949        0.56458
H         -0.33253        4.24583       -0.94096
H         -0.22960        3.99306        0.81384
H          2.00976        3.72868       -0.43641
H          1.56795        2.33787        0.56038
H          1.35349        2.45922       -2.34358
H          2.12941        1.37945       -1.38513
H         -2.09030        2.66155       -0.40787
H         -0.79734        1.86638       -1.10542
C         -0.10968        3.51441       -0.15888
C          1.28730        2.91016       -0.32980
N         -1.09605        2.41877       -0.28975
N          1.28973        1.97061       -1.45444
H         -1.14222       -1.33602       -1.90538
H          0.54207       -1.79608       -2.29657
H         -0.92705       -3.77882       -1.96106
H          0.40777       -3.72808       -0.79761
H         -2.31630       -2.80523       -0.16832
H         -1.55482       -4.14201        0.45155
H          0.51316       -0.07267       -0.67773
H         -0.49390       -0.92658        0.33895
C         -0.23420       -1.81447       -1.52920
C         -0.53012       -3.24094       -1.08611
N          0.24716       -1.01665       -0.37532
N         -1.41549       -3.21623        0.06767
