32
2msa2ma_175.log	Energy: -953956.7047673
S          2.75018       -0.33713        0.37176
O          4.16859       -0.59427        0.17908
O          1.94346       -0.45184       -0.90906
O          2.42353        0.98042        1.00522
H          1.47559        1.78559        0.02459
C          2.09534       -1.58118        1.46861
H          2.28531       -2.55771        1.02156
H          2.62421       -1.48832        2.41755
H          1.02521       -1.41229        1.60100
S         -1.34168       -0.82283       -0.57478
O         -1.35444        0.57538       -1.05093
O         -1.25401       -0.99494        0.87228
O         -0.20617       -1.61441       -1.30027
H          0.73213       -1.17409       -1.12052
C         -2.78179       -1.63572       -1.20049
H         -3.62860       -1.18629       -0.66892
H         -2.82958       -1.46969       -2.27615
H         -2.69305       -2.69674       -0.96691
N         -4.24724       -0.09519        1.29788
H         -5.02285       -0.33242        1.90640
C         -4.13377        1.35473        1.14264
H         -3.97275        1.90147        2.08331
H         -3.29838        1.57438        0.47196
H         -5.04334        1.74244        0.67485
H         -3.40136       -0.46842        1.72054
N          0.87272        2.22121       -0.74142
H          1.40640        2.10629       -1.60206
C          0.53372        3.63052       -0.46237
H         -0.07778        4.03433       -1.26943
H         -0.02293        3.67194        0.47330
H          1.45193        4.20880       -0.36171
H          0.02667        1.62512       -0.83712
