35
2msa1ma1dma_32.log	Energy: -978632.7234655
S          2.19679       -0.74380       -0.31165
O          2.32383       -2.20723       -0.18064
O          3.41829        0.06442       -0.21511
O          1.15080       -0.24565        0.68245
H          1.07586        1.24886        0.89263
C          1.48251       -0.44063       -1.92103
H          2.18111       -0.82545       -2.66498
H          0.51317       -0.93790       -1.97996
H          1.33465        0.63189       -2.04626
S         -2.07950        0.26668       -0.46722
O         -1.29028        1.43276       -0.92005
O         -2.08276        0.08441        1.00364
O         -1.72117       -1.00331       -1.17961
H         -0.96922       -2.06489       -0.10070
C         -3.76854        0.60075       -0.94967
H         -4.09004        1.51526       -0.45025
H         -3.79671        0.72554       -2.03239
H         -4.38916       -0.24162       -0.64324
N         -0.43735       -2.42183        0.73281
H          0.35312       -2.99411        0.42139
C         -1.32989       -3.06606        1.71184
H         -0.75940       -3.35704        2.59420
H         -2.09593       -2.33935        1.98236
H         -1.78988       -3.94655        1.26277
H          0.00724       -1.55166        1.08606
N          1.13776        2.31266        1.06739
C         -0.08700        2.77730        1.75917
C          1.38787        2.97858       -0.23345
H          1.95296        2.42923        1.66828
H         -0.93160        2.56537        1.10419
H         -0.20238        2.21554        2.68583
H         -0.00514        3.84640        1.96677
H          0.53359        2.76189       -0.87613
H          1.49635        4.05426       -0.08045
H          2.30253        2.55954       -0.65617
