42
2msa2eda_400.log	Energy: -1072751.1180698
S         -0.72347        2.21566        0.32001
O         -0.58304        1.63612        1.66151
O         -2.11516        2.14473       -0.22528
O          0.27058        1.65786       -0.64967
C         -0.38117        3.96175        0.41919
H         -1.10556        4.40512        1.10262
H          0.63212        4.08646        0.80229
H         -0.47871        4.38951       -0.57846
S         -3.07729       -1.18676       -0.40828
O         -2.22218       -1.66758        0.69096
O         -2.46493       -1.19967       -1.72918
O         -3.68228        0.20773       -0.06017
H         -2.99242        0.99072       -0.11438
C         -4.56459       -2.15531       -0.40917
H         -5.03098       -2.07192        0.57193
H         -5.22012       -1.77331       -1.19124
H         -4.27330       -3.18546       -0.61543
H          2.13024       -0.22190        1.14528
H          0.73406       -0.56258        2.18227
H          2.60807       -2.28541        2.41934
H          1.08584       -3.01290        1.88806
H          3.38357       -2.37234        0.17913
H          2.59636       -3.82301        0.34215
H          0.38125       -0.04136       -0.29313
H          0.90847       -1.65266       -0.50615
C          1.32952       -0.93797        1.35034
C          1.89326       -2.33625        1.58657
N          0.46634       -0.98603        0.14181
N          2.47269       -2.81805        0.33392
H         -0.49019       -1.31513        0.36601
H          5.70855        0.46043       -1.29919
H          5.08921       -1.05273       -1.97680
H          3.55254        0.79618       -2.45780
H          2.78719       -0.40347       -1.41411
H          3.86895        2.16060       -0.49936
H          2.31059        1.65088       -0.44599
H          5.84578       -1.29001        0.34320
H          4.65595       -0.25889        0.80522
C          4.91449       -0.29866       -1.20203
C          3.56454        0.36754       -1.44480
N          4.91827       -0.95297        0.10858
N          3.28051        1.34000       -0.39133
