42
2msa2eda_78.log	Energy: -1072768.2944849
S         -2.88538        0.36954        0.12127
O         -3.03454       -0.78607       -0.78169
O         -2.78315        1.68559       -0.52431
O         -1.73408        0.14846        1.08563
C         -4.34076        0.40129        1.15583
H         -4.23573        1.21188        1.87712
H         -5.20204        0.57200        0.50928
H         -4.42678       -0.55959        1.66340
S          3.20493       -0.36279       -0.01468
O          2.76329       -1.36651       -0.99859
O          2.21539       -0.30156        1.13962
O          3.48278        0.98391       -0.53590
C          4.72050       -0.96387        0.71233
H          5.46268       -1.03399       -0.08339
H          5.04185       -0.25368        1.47419
H          4.53392       -1.94467        1.14983
H          0.59170       -3.81310        0.29012
H         -0.39325       -3.30431        1.68642
H         -1.67377       -4.67380       -0.07390
H         -2.39158       -3.10497        0.30807
H         -1.50729       -3.92215       -2.21335
H         -2.08023       -2.43233       -1.76077
H          0.94859       -1.44816        0.70186
H          0.15055       -1.73970       -0.73265
C         -0.26128       -3.20813        0.60644
C         -1.53050       -3.59217       -0.16256
N          0.06072       -1.80094        0.28869
N         -1.40937       -3.16568       -1.55140
H         -0.69862       -1.14950        0.58819
H          1.55245        2.12105       -1.03926
H         -0.03920        1.36413       -1.28846
H         -0.03838        3.78370       -1.99478
H         -1.21374        3.41671       -0.72354
H          1.36146        4.77753       -0.32947
H         -0.13203        5.26468        0.13357
H          1.20272        1.11144        0.96300
H          0.60354        2.68828        1.21528
C          0.50201        2.13624       -0.73905
C         -0.14575        3.50120       -0.94014
N          0.46034        1.80324        0.71266
N          0.45727        4.45256       -0.00247
H         -0.45525        1.37833        0.96639
