40
2msa1dma1eda_448.log	Energy: -1038010.7762970
S         -1.93847       -1.89076        0.16082
O         -2.34964       -0.96169        1.21849
O         -0.62110       -2.49871        0.28963
O         -2.10239       -1.20760       -1.24358
H         -1.47785       -0.37973       -1.34055
C         -3.16985       -3.16103        0.00817
H         -4.13729       -2.68730       -0.15461
H         -2.89709       -3.80465       -0.82762
H         -3.16288       -3.71983        0.94452
S          0.85213        0.81700       -1.21233
O          1.50567        1.94637       -1.86306
O         -0.64752        0.81562       -1.44223
O          1.10925        0.72890        0.26396
H         -0.18741        1.04239        1.15963
C          1.45853       -0.70424       -1.90308
H          1.31350       -0.65999       -2.98281
H          2.51490       -0.78704       -1.63255
H          0.89636       -1.52680       -1.45619
N          3.70462       -0.87361        0.48201
C          5.07062       -0.67500        0.92679
C          3.04624       -1.99108        1.13714
H          3.15103       -0.03473        0.62949
H          5.68124       -1.53723        0.63436
H          5.49214        0.21121        0.44434
H          5.16887       -0.55512        2.02177
H          3.51955       -2.93075        0.82894
H          3.09363       -1.94026        2.24068
H          1.99382       -2.02561        0.84332
H         -1.69156        3.19947        2.56889
H          0.08224        3.04298        2.41991
H         -0.99486        4.65954        0.74326
H         -0.01632        3.39250        0.00903
H         -2.72583        3.84739       -0.46337
H         -1.82712        2.55928       -0.98664
H         -1.18738        0.85990        2.51348
H         -1.84713        1.28095        1.06527
C         -0.87411        2.87420        1.92072
C         -0.94286        3.58208        0.56174
N         -1.03284        1.42075        1.67875
N         -2.10874        3.10156       -0.17402
