37
2msa1ma1eda_161.log	Energy: -1013362.2752632
S          2.83767       -0.45431       -0.40079
O          1.87502       -1.23818       -1.18681
O          3.97163       -1.14220        0.17681
O          2.08196        0.28095        0.77280
C          3.38546        0.88845       -1.43233
H          3.88936        0.44956       -2.29389
H          2.50690        1.45824       -1.73932
H          4.07152        1.50339       -0.85027
S         -1.07334        1.97971        0.12480
O         -1.30672        1.76927        1.56288
O         -1.93552        1.14912       -0.75623
O          0.37361        1.82794       -0.25319
H          1.33978        0.89795        0.42208
C         -1.46835        3.67688       -0.24287
H         -2.52187        3.83217       -0.00957
H         -0.83769        4.31256        0.37864
H         -1.27744        3.85135       -1.30155
N         -0.97878       -1.13348        2.24933
H         -1.08494       -0.11573        2.26813
C          0.22237       -1.54440        2.98921
H          0.18984       -1.27386        4.05138
H          0.34881       -2.62790        2.91115
H          1.09481       -1.06932        2.53698
H         -1.81184       -1.51839        2.68448
H         -1.54150       -2.69136       -2.07100
H         -1.29629       -3.48142       -0.49355
H         -3.67443       -3.28588       -0.92545
H         -3.25526       -2.21935        0.41770
H         -4.70658       -1.30317       -1.47557
H         -3.40843       -0.36242       -1.13249
H          0.13481       -1.50374       -0.81798
H         -1.21896       -0.53493       -0.87366
C         -1.67307       -2.58463       -0.99240
C         -3.14579       -2.36222       -0.67058
N         -0.85393       -1.44081       -0.52730
N         -3.69446       -1.27839       -1.47177
H         -0.88309       -1.37498        0.54127
