42
2msa2eda_29.log	Energy: -1072769.9378255
S          2.87948        0.70089       -0.35342
O          1.91450        0.28094        0.71902
O          2.53557        2.04796       -0.87723
O          3.03149       -0.34275       -1.38634
C          4.46453        0.87683        0.44517
H          4.37453        1.63111        1.22688
H          4.74557       -0.08739        0.86902
H          5.18587        1.18963       -0.31000
S         -2.46062       -0.55002       -0.58286
O         -2.90040        0.02375        0.70072
O         -1.93944       -1.94302       -0.47471
O         -1.49300        0.32144       -1.31648
C         -3.90408       -0.66014       -1.62540
H         -4.31661        0.34204       -1.74476
H         -3.60207       -1.07137       -2.58849
H         -4.62359       -1.31553       -1.13414
H         -0.23954        4.23068        0.67661
H         -1.04864        3.90284       -0.87438
H         -2.65607        4.14976        1.10011
H         -2.80590        2.61563        0.23566
H         -2.15098        2.91438        2.93794
H         -2.25745        1.52376        2.04565
H          0.87242        2.37141       -0.41366
H          0.05691        1.86611        0.94157
C         -0.85324        3.51270        0.12687
C         -2.14798        3.20427        0.88395
N         -0.07533        2.26304        0.00412
N         -1.84191        2.45024        2.09531
H         -0.59859        1.53995       -0.54175
H          1.32322       -3.95987       -0.53195
H          2.49685       -2.86654        0.25355
H          1.41314       -4.10714        1.99371
H          0.79241       -2.45694        2.07229
H         -0.89048       -4.33771        2.17713
H         -1.22120       -3.29603        0.95573
H          1.28776       -1.69237       -1.40693
H         -0.20985       -2.00861       -0.65985
C          1.43692       -3.09941        0.13030
C          0.77821       -3.38327        1.47326
N          0.81961       -1.91660       -0.52477
N         -0.54168       -3.97255        1.29916
H          1.00970       -1.07315        0.05917
