25
2msa1ma_28.log	Energy: -893801.8897287
S         -2.79113        0.30185       -0.08430
O         -4.21711        0.51070        0.05331
O         -2.28183       -0.61137       -1.10198
O         -2.25327       -0.15024        1.34173
H         -1.34322       -0.55528        1.27020
C         -1.99216        1.87712       -0.31794
H         -2.34188        2.27347       -1.27231
H         -2.28857        2.53285        0.50076
H         -0.91276        1.70981       -0.33583
S          1.15864       -0.82725        0.12224
O          0.19339       -1.14866        1.19149
O          2.56274       -1.21687        0.48086
O          1.11674        0.61234       -0.29189
H          2.66829        1.43029        0.19663
C          0.71276       -1.79410       -1.29967
H          1.39422       -1.54464       -2.11298
H          0.80525       -2.84483       -1.02374
H         -0.32089       -1.54508       -1.54775
N          3.62404        1.15808        0.51027
H          3.84673        1.61203        1.39300
C          4.64347        1.38958       -0.53508
H          5.59598        0.97180       -0.21051
H          4.31375        0.88298       -1.44146
H          4.74795        2.45733       -0.72623
H          3.43696        0.11636        0.65913
