40
2msa1dma1eda_477.log	Energy: -1038010.6210323
S         -1.66966       -0.91411        0.37572
O         -0.78305       -1.70196       -0.48773
O         -2.98991       -1.56937        0.64892
O         -1.89576        0.48601       -0.13104
H         -3.53585        0.74375       -0.38046
C         -0.86420       -0.73132        1.95233
H         -0.67701       -1.73002        2.34857
H          0.06861       -0.18286        1.80012
H         -1.52823       -0.17483        2.61416
S          2.05137        1.87969        0.12423
O          1.78291        3.30009        0.24321
O          1.83340        1.01634        1.28760
O          3.54131        1.71407       -0.36539
H          3.81555        0.70780       -0.45375
C          1.11214        1.21030       -1.23185
H          0.05419        1.25908       -0.96348
H          1.32738        1.80965       -2.11691
H          1.40139        0.16719       -1.38146
N         -4.51758        0.36034       -0.33985
C         -5.03257        0.12954       -1.70251
C         -5.37855        1.18060        0.53021
H         -4.26800       -0.55369        0.11408
H         -5.15621        1.08685       -2.21127
H         -4.31150       -0.48520       -2.24172
H         -5.99174       -0.38783       -1.64763
H         -5.52144        2.16354        0.07846
H         -6.34449        0.68936        0.65866
H         -4.88986        1.29060        1.49838
H          4.63451       -2.66847        0.10080
H          4.36981       -1.34606        1.25649
H          2.40220       -2.87278        1.09460
H          2.01920       -1.20268        0.66919
H          2.29036       -3.41506       -1.21600
H          1.07098       -2.33204       -1.03134
H          5.27538       -0.69643       -0.99464
H          3.78403       -1.07439       -1.58607
C          4.05297       -1.75511        0.29280
C          2.56339       -2.09061        0.33832
N          4.28918       -0.75136       -0.75819
N          2.08169       -2.44708       -0.99459
