32
2msa1a1dma_33.log	Energy: -953971.6699331
S          2.12118       -0.34180        0.22367
O          1.61596        0.83994        0.95404
O          2.01979       -0.22904       -1.25094
O          1.53856       -1.63455        0.71744
H          0.65156       -2.33579       -0.49063
C          3.86281       -0.44995        0.61281
H          3.96515       -0.55769        1.69282
H          4.27957       -1.31670        0.09944
H          4.34482        0.46640        0.27081
S         -2.20520       -0.60053        0.11137
O         -2.48145       -1.98361       -0.35749
O         -3.34957        0.31166        0.19794
O         -1.08634       -0.02882       -0.73148
H         -0.79222        1.43293       -0.64664
C         -1.51877       -0.76509        1.75249
H         -2.25334       -1.28465        2.36874
H         -0.58020       -1.31814        1.68347
H         -1.32109        0.23098        2.14927
N          0.06252       -2.45036       -1.36180
H          0.35103       -3.24993       -1.91572
H          0.22503       -1.56805       -1.85771
H         -0.94689       -2.48333       -1.09324
N         -0.67880        2.50958       -0.59626
C          0.58975        2.91122       -1.24683
C         -0.78357        2.90622        0.82766
H         -1.47545        2.88145       -1.11215
H          1.40358        2.45986       -0.68012
H          0.60188        2.51666       -2.26260
H          0.66996        4.00047       -1.25573
H          0.01928        2.39758        1.36323
H         -0.68430        3.98977        0.91954
H         -1.75684        2.58193        1.19997
