42
2msa2eda_81.log	Energy: -1072767.9328072
S          2.47852       -1.06403       -0.49825
O          3.08414        0.19166       -0.96552
O          1.93791       -1.95661       -1.54027
O          1.42952       -0.80369        0.56887
C          3.76501       -1.97112        0.34499
H          4.54100       -2.20009       -0.38588
H          4.16259       -1.34331        1.14268
H          3.33721       -2.88779        0.75109
S         -2.54627        1.09726       -0.53622
O         -2.67996       -0.12768       -1.36765
O         -1.66490        2.13105       -1.10633
O         -2.14709        0.74591        0.87028
C         -4.18514        1.79090       -0.43178
H         -4.50336        2.04672       -1.44271
H         -4.84786        1.04154        0.00132
H         -4.14095        2.68233        0.19416
H          0.76891        3.60108        1.71459
H          1.33454        2.19669        2.65534
H          3.21089        3.54032        1.55729
H          3.19595        1.82472        1.13216
H          3.02748        3.92918       -0.66660
H          2.79890        2.32182       -0.98125
H         -0.52055        1.57740        1.14138
H          0.34392        2.15904       -0.12942
C          1.27232        2.63335        1.65554
C          2.65511        2.77096        1.01175
N          0.44500        1.74894        0.80877
N          2.51125        3.10330       -0.39897
H          0.88600        0.80710        0.69988
H         -1.94372       -3.70933       -0.53507
H         -0.24609       -3.86073        0.00324
H         -1.72500       -3.92425        1.92938
H         -0.72770       -2.46755        1.98128
H         -3.25702       -2.29361        2.40176
H         -2.65555       -1.20150        1.34073
H         -1.60887       -1.35863       -0.91563
H         -0.11871       -1.42003       -0.09700
C         -1.13655       -3.22703        0.01955
C         -1.56745       -2.95083        1.45407
N         -0.78512       -1.96490       -0.68015
N         -2.81100       -2.19776        1.49768
H         -0.24569       -2.14229       -1.53224
