38
2msa2dma_147.log	Energy: -1003280.6754724
S         -2.48867       -0.10851       -0.15441
O         -2.03114        1.21281        0.30946
O         -2.54938       -1.15704        0.85372
O         -1.65792       -0.55229       -1.39342
C         -4.08506        0.11673       -0.89810
H         -4.75634        0.47232       -0.11600
H         -3.99374        0.85442       -1.69491
H         -4.41717       -0.84491       -1.28818
S          1.44186       -1.82648       -0.17098
O          1.31804       -2.42680        1.15815
O          1.78938       -0.37163       -0.12821
O          0.25580       -2.06432       -1.06185
H         -0.83598       -1.19450       -1.18529
C          2.78673       -2.62713       -1.02191
H          3.69029       -2.48794       -0.42810
H          2.54327       -3.68594       -1.11029
H          2.89357       -2.17091       -2.00592
N          0.39807        1.00842        1.74830
C          1.16802        2.15757        2.26745
C         -0.01841        0.02975        2.78179
H         -0.44245        1.32973        1.23923
H          2.08115        1.78415        2.73359
H          1.39875        2.80083        1.41559
H          0.56671        2.69080        3.00629
H          0.87290       -0.42344        3.21506
H         -0.60080        0.54875        3.54499
H         -0.62326       -0.74619        2.31285
H          0.97216        0.50710        1.02292
N          1.28058        3.02316       -0.89535
C          0.41801        2.23189       -1.76965
C          2.69481        2.76847       -1.14642
H          1.08679        4.00885       -1.04084
H          0.59553        1.17142       -1.57454
H         -0.63027        2.44166       -1.54646
H          0.60362        2.41793       -2.84133
H          2.91029        1.72157       -0.91183
H          2.99135        2.95078       -2.19352
H          3.30911        3.40289       -0.49936
