37
2msa1ma1eda_89.log	Energy: -1013363.4763038
S          1.20159       -1.70652        0.41540
O          0.84706       -1.31863       -0.99559
O          0.01391       -2.00837        1.22703
O          2.11701       -0.70072        1.01680
C          2.14947       -3.20894        0.27240
H          1.51482       -3.96512       -0.18982
H          3.02564       -3.00735       -0.34373
H          2.44404       -3.51346        1.27687
S         -2.40992        0.03974       -0.77436
O         -3.53993        0.54987       -1.52112
O         -1.50737        1.00020       -0.12303
O         -1.57267       -0.88050       -1.74088
H         -0.63467       -1.06290       -1.39643
C         -2.98013       -1.08769        0.47603
H         -3.57437       -0.50936        1.18485
H         -3.59525       -1.84330       -0.01272
H         -2.10243       -1.53037        0.95307
N         -0.64262        2.38614        2.36713
H         -0.77240        3.16295        3.00638
C         -0.56977        1.11095        3.09642
H         -1.45002        0.91395        3.72091
H         -0.46834        0.29095        2.38063
H          0.31717        1.10646        3.73517
H         -1.43860        2.36661        1.73319
H          1.74538        3.49438       -0.74150
H          2.96106        2.85334        0.39575
H          3.49809        2.40071       -2.04634
H          3.40144        0.94025       -1.05587
H          1.97373        1.34779       -3.33582
H          1.50202        0.30940       -2.14416
H          0.64944        2.25328        1.10919
H          0.42056        1.53763       -0.36479
C          2.20866        2.58571       -0.35022
C          2.81037        1.75895       -1.48782
N          1.15564        1.78862        0.31142
N          1.74356        1.27492       -2.35468
H          1.54417        0.88618        0.66498
