40
2msa1dma1eda_47.log	Energy: -1038036.5678460
S         -2.88975        0.21713       -0.41222
O         -2.62655        0.50276        1.01517
O         -2.29129       -1.07899       -0.84408
O         -2.51885        1.34767       -1.30796
C         -4.65302        0.02372       -0.60469
H         -4.85867       -0.19314       -1.65292
H         -4.97825       -0.79922        0.03209
H         -5.13066        0.95593       -0.30289
S          2.61501       -0.72863       -0.42220
O          2.39836       -2.00305        0.31707
O          3.35760        0.29810        0.32675
O          1.30978       -0.23143       -0.96225
C          3.60269       -1.14792       -1.84864
H          4.54539       -1.56380       -1.49211
H          3.05659       -1.87997       -2.44346
H          3.77708       -0.23687       -2.42153
N         -0.32943       -2.13115        0.73125
C         -0.31420       -1.36347        1.99589
C         -0.89452       -3.48719        0.86647
H         -0.91105       -1.61406        0.03030
H          0.24100       -1.92766        2.74657
H          0.18859       -0.41540        1.80851
H         -1.33939       -1.16503        2.30737
H         -0.27732       -4.07124        1.55103
H         -1.91358       -3.40906        1.24718
H         -0.91030       -3.95976       -0.11532
H          0.65543       -2.17717        0.39386
H         -0.48927        3.61602        0.72709
H         -0.78655        1.96131        1.29118
H          1.28045        3.12529        2.33610
H          1.60396        1.55358        1.60638
H          2.73401        3.99271        0.81985
H          3.01777        2.46698        0.26078
H         -0.94555        1.97060       -1.04079
H          0.57487        2.77525       -1.17400
C         -0.07770        2.60390        0.76268
C          1.31879        2.58671        1.38301
N          0.00804        2.11764       -0.63715
N          2.29645        3.15703        0.45526
H          0.51119        1.19915       -0.69590
