34
2msa1a1eda_60.log	Energy: -988710.0789454
S          2.48081        0.58408        0.07355
O          2.15753        0.62257       -1.36924
O          2.51886       -0.81083        0.60832
O          1.62134        1.49139        0.88577
C          4.14008        1.21217        0.26933
H          4.81573        0.57678       -0.30356
H          4.16382        2.23508       -0.10705
H          4.39071        1.18472        1.32987
S         -1.41150       -1.58927        0.25405
O         -1.05261       -2.97236       -0.16437
O         -2.84661       -1.31604        0.41710
O         -0.73558       -0.61012       -0.66076
C         -0.64154       -1.36427        1.85314
H         -1.02791       -2.13341        2.52272
H          0.44037       -1.44490        1.73012
H         -0.88905       -0.37287        2.23393
N          1.32464       -2.27165       -1.35410
H          0.47659       -2.76397       -0.98198
H          0.98667       -1.42605       -1.82528
H          1.89172       -1.89533       -0.55441
H          1.88192       -2.85078       -1.97350
H         -1.81793        1.43455        1.28671
H         -1.53812        3.17891        1.18043
H         -3.91684        2.48654        0.72580
H         -3.19240        3.42227       -0.58501
H         -3.37250        0.47778       -0.63631
H         -4.21667        1.53923       -1.57317
H          0.21199        1.97778        0.07863
H         -0.86156        1.03018       -0.73840
C         -1.80328        2.28846        0.60627
C         -3.15953        2.45189       -0.07321
N         -0.73132        2.00833       -0.37817
N         -3.35294        1.40608       -1.06204
H         -0.73620        2.66085       -1.15865
