42
2msa2eda_588.log	Energy: -1072740.3332026
S          0.51450       -1.31861       -0.75392
O          0.17139       -0.77724        0.60424
O          1.12083       -2.65637       -0.68322
O          1.42559       -0.34886       -1.47169
H          2.90077       -0.86932       -1.07010
C         -0.99568       -1.38274       -1.67251
H         -1.69458       -2.03653       -1.13685
H         -1.39447       -0.36727       -1.72133
H         -0.76438       -1.77042       -2.66510
S         -0.49991        2.63154       -0.08337
O         -0.83418        3.90787        0.51398
O         -1.53770        1.84466       -0.74536
O          0.17873        1.74672        1.04425
H          0.10908        0.75586        0.83396
C          0.82313        2.86145       -1.25177
H          0.42624        3.46275       -2.07072
H          1.63267        3.39008       -0.74741
H          1.13598        1.87396       -1.59889
H         -4.86247       -1.94490        1.55283
H         -3.22381       -2.51566        1.91283
H         -3.37168       -0.06343        2.09509
H         -2.24425       -0.55246        0.83018
H         -4.89807        0.58034        0.41148
H         -3.45823        0.99969       -0.25636
H         -4.13704       -3.51326       -0.13287
H         -4.16868       -2.01072       -0.80568
C         -3.82222       -1.96047        1.18189
C         -3.30346       -0.52730        1.09899
N         -3.69438       -2.60121       -0.12570
N         -4.01893        0.21517        0.06148
H          5.27368       -0.69513        0.75732
H          4.62247        0.61848       -0.26019
H          3.83562        0.70528        2.17810
H          2.52338        0.63906        1.00604
H          3.12273       -1.32273        2.96618
H          1.83785       -1.25076        1.92076
H          4.39009       -1.69705       -1.21572
H          3.33780       -2.01061        0.05184
C          4.36446       -0.26039        0.33455
C          3.34802        0.06378        1.43735
N          3.74288       -1.27568       -0.55447
N          2.84945       -1.18289        2.00337
