40
2msa1dma1eda_296.log	Energy: -1038020.8054106
S         -2.45909       -0.07861       -0.65184
O         -2.50488        1.26002       -0.00530
O         -2.85996       -1.19249        0.21662
O         -1.11133       -0.29528       -1.29547
C         -3.61256       -0.01098       -2.00937
H         -4.60281        0.17942       -1.59508
H         -3.31097        0.79315       -2.68034
H         -3.58780       -0.97389       -2.51974
S          1.83903       -1.75404       -0.23596
O          2.16498       -2.53833        0.94235
O          1.90547       -0.28947       -0.13467
O          0.44598       -2.18498       -0.79956
H         -0.21769       -1.39904       -0.95751
C          2.92549       -2.25822       -1.55299
H          3.94641       -2.03549       -1.24116
H          2.79608       -3.32994       -1.70330
H          2.66044       -1.70373       -2.45302
N          1.80472        2.74325       -0.33949
C          2.57302        3.97948       -0.26857
C          0.94035        2.67241       -1.51862
H          2.42845        1.93958       -0.35277
H          1.88854        4.82434       -0.14119
H          3.24285        3.95158        0.59478
H          3.17338        4.16517       -1.17315
H          0.17384        3.45179       -1.45291
H          1.49350        2.81582       -2.45936
H          0.43876        1.70083       -1.55102
H          0.83642        1.05698        3.12394
H         -0.64552        2.04184        3.16826
H         -0.99992       -0.34676        4.00195
H         -2.03241        0.08941        2.63494
H          0.19101       -1.78218        2.53019
H         -1.21035       -1.69572        1.62806
H          0.64412        2.10660        0.94080
H          0.30401        0.49083        0.86114
C         -0.17144        1.16875        2.71433
C         -0.99744       -0.10827        2.93046
N         -0.04133        1.38074        1.25878
N         -0.47583       -1.16575        2.08427
H         -0.96883        1.53943        0.81314
