40
2msa1dma1eda_102.log	Energy: -1038027.5790490
S         -2.58785       -0.62252        0.58750
O         -3.51871        0.47676        0.86434
O         -1.17713       -0.30948        0.97032
O         -2.63866       -1.10670       -0.83223
H         -1.40426       -0.54525       -1.71774
C         -3.07982       -2.02218        1.57891
H         -4.10357       -2.28267        1.30943
H         -2.40224       -2.85038        1.37026
H         -3.02228       -1.73031        2.62784
S          2.47136       -1.25394       -0.19125
O          3.63009       -1.90162       -0.79326
O          1.81635       -0.22720       -1.08124
O          2.71598       -0.63683        1.14983
H          1.94279        0.76428        1.13052
C          1.21852       -2.49942        0.08213
H          1.00663       -2.98858       -0.87034
H          1.61878       -3.22529        0.79091
H          0.33135       -2.00436        0.48539
N          1.53826        1.74425        1.11343
C          2.64974        2.68583        0.88440
C          0.77520        1.96866        2.35767
H          0.88470        1.80058        0.30859
H          3.35511        2.61849        1.71375
H          3.15073        2.40104       -0.04097
H          2.25893        3.70226        0.80437
H          1.44334        1.84456        3.21124
H          0.35962        2.97885        2.35666
H         -0.02778        1.23012        2.39675
H          0.29585        1.59625       -2.92137
H         -1.23618        1.14750       -3.71036
H         -1.56237        3.06651       -2.27972
H         -2.51406        1.69601       -1.69525
H         -1.22852        3.05346       -0.03814
H         -1.10380        1.44690        0.09625
H         -0.35514       -0.83568       -3.00199
H          0.29886       -0.24361       -1.60881
C         -0.70758        1.19658       -2.75523
C         -1.49229        2.08527       -1.80088
N         -0.54982       -0.19098       -2.23868
N         -0.83539        2.23739       -0.49781
