29
2msa1a1ma_22.log	Energy: -929310.5104834
S         -2.28466       -0.13082        0.02493
O         -2.01015       -0.72227       -1.27750
O         -2.01911        1.31075        0.15871
O         -1.55579       -0.91780        1.16287
H         -0.50895       -0.83376        1.06496
C         -3.97431       -0.42580        0.47929
H         -4.15276       -1.50017        0.44737
H         -4.13909       -0.02543        1.47899
H         -4.59337        0.09161       -0.25407
S          1.80368       -1.14114       -0.15353
O          3.08938       -1.57403        0.37986
O          1.87464       -0.13823       -1.25029
O          0.88704       -0.61646        0.94506
H          1.76133        0.97098        2.01476
C          0.95568       -2.55628       -0.83015
H          1.57547       -2.95041       -1.63603
H          0.84368       -3.29727       -0.03792
H         -0.01412       -2.23125       -1.21194
N          2.08618        1.93820        1.94810
H          1.91225        2.39730        2.83589
H          1.14288        2.27785        0.44085
H          3.09258        1.89612        1.81668
N          0.63665        2.15753       -0.47464
H          1.06514        1.29776       -0.89512
C          0.76468        3.32803       -1.36019
H          0.25422        3.12831       -2.30235
H          0.32007        4.20156       -0.88259
H          1.82113        3.51437       -1.55408
H         -0.34897        1.93229       -0.26542
