32
2msa2ma_115.log	Energy: -953959.6158025
S          2.11010       -0.51250        0.66002
O          2.70537       -1.69414        1.26149
O          1.14714        0.19958        1.67563
O          1.39457       -0.72587       -0.61748
H          0.05607       -1.73784       -0.77317
C          3.32189        0.74800        0.40668
H          2.79601        1.61836       -0.01391
H          3.77763        0.96615        1.37285
H          4.06107        0.34137       -0.28489
S         -2.16955        0.51406        0.35102
O         -2.64853       -0.29420       -0.80833
O         -1.55301        1.79498        0.00180
O         -1.29156       -0.34727        1.22669
H          0.15617        0.02554        1.48277
C         -3.61361        0.87160        1.33205
H         -4.28757        1.47271        0.72133
H         -4.08411       -0.06886        1.61810
H         -3.29148        1.42883        2.21185
N         -0.83434       -2.28410       -0.82638
H         -0.99055       -2.65446        0.11077
C         -0.78636       -3.33332       -1.86300
H         -1.73732       -3.86516       -1.89000
H         -0.60876       -2.85834       -2.82715
H          0.02448       -4.02793       -1.64399
H         -1.59834       -1.57119       -0.97316
N          1.20712        2.75610       -0.97707
H          0.36185        2.42202       -0.51604
C          1.21274        2.29333       -2.36435
H          0.31879        2.57604       -2.93896
H          2.09256        2.69003       -2.88140
H          1.28750        1.20213       -2.36910
H          1.16794        3.76945       -0.94502
