32
2msa2ma_61.log	Energy: -953967.3497940
S         -1.13786        1.44313        0.28076
O         -0.12463        1.85225        1.26102
O         -2.38008        0.88146        0.84677
O         -0.56071        0.48001       -0.74559
C         -1.59136        2.88766       -0.66237
H         -2.02220        3.61139        0.03008
H         -0.69104        3.29091       -1.12648
H         -2.32009        2.59320       -1.41746
S          2.74427       -0.39250       -0.32520
O          4.02269       -0.74450       -0.90402
O          1.88041       -1.45700        0.19467
O          1.93986        0.42493       -1.41932
H          0.96518        0.49605       -1.16705
C          2.97723        0.80227        0.97125
H          3.49798        0.29740        1.78615
H          3.58684        1.61253        0.57118
H          1.99538        1.16615        1.28676
N         -0.81710       -2.00955        0.48849
H         -0.53715       -1.13477       -0.00064
H         -1.83631       -2.15156        0.22733
C         -0.67068       -1.83056        1.95202
H         -0.98313       -2.74309        2.46054
H          0.37294       -1.60855        2.16889
H         -1.30255       -0.99408        2.25183
H         -0.20733       -2.74668        0.14107
N         -3.46529       -1.67183       -0.22179
H         -4.30400       -2.17577        0.04558
C         -3.45160       -1.40289       -1.66588
H         -4.32446       -0.83640       -2.01202
H         -2.55331       -0.82560       -1.90227
H         -3.41025       -2.34650       -2.21678
H         -3.45431       -0.78090        0.27907
