32
2msa2ma_16.log	Energy: -953975.7563062
S          2.41053        0.17962       -0.48954
O          3.69385        0.87206       -0.45681
O          1.47849        0.57266        0.63368
O          2.48549       -1.31130       -0.53254
H          1.13596       -1.87929        0.18307
C          1.56278        0.65572       -1.98967
H          1.44973        1.74147       -1.99715
H          2.18417        0.34387       -2.83003
H          0.59125        0.15686       -2.01821
S         -2.18502       -0.22837       -0.52975
O         -1.87612       -0.51636        0.90725
O         -1.36173       -1.04533       -1.43711
O         -2.14059        1.23643       -0.81140
H         -1.06814        2.08981        0.11630
C         -3.88698       -0.69597       -0.78847
H         -3.98714       -1.76057       -0.57637
H         -4.51379       -0.10656       -0.11936
H         -4.13341       -0.48862       -1.83000
N          0.36932       -2.19055        0.84453
H         -0.40357       -1.49197        0.81625
C          0.93132       -2.28744        2.20778
H          0.14427       -2.54589        2.91670
H          1.71938       -3.03996        2.22295
H          1.35650       -1.31330        2.44800
H         -0.01123       -3.07288        0.51077
N         -0.35069        2.42514        0.81011
H          0.47462        1.75705        0.70229
C         -0.89953        2.33069        2.18139
H         -0.11201        2.54236        2.90485
H         -1.72018        3.03905        2.29943
H         -1.27164        1.31358        2.30809
H         -0.05390        3.36944        0.57786
