37
2msa1ma1eda_05.log	Energy: -1013375.6547126
S          2.83813        0.51266       -0.10667
O          2.99022       -0.64480       -1.03053
O          2.11832        0.14027        1.13859
O          2.22923        1.70671       -0.75577
C          4.49223        0.99387        0.35240
H          4.97870        0.13800        0.82071
H          5.02204        1.28824       -0.55375
H          4.42594        1.82903        1.04984
S         -2.23153       -1.30073       -0.20107
O         -1.55546       -2.43025       -0.89518
O         -2.84247       -0.30305       -1.09078
O         -1.31182       -0.67857        0.81190
C         -3.55634       -2.03759        0.74264
H         -4.23902       -2.51754        0.04095
H         -3.13232       -2.77045        1.42912
H         -4.06679       -1.24613        1.29212
N          1.02594       -2.26820        0.02058
H          0.12566       -2.43824       -0.47837
H          1.72793       -1.80694       -0.59509
C          1.57350       -3.48725        0.64198
H          2.48555       -3.23056        1.18086
H          0.83788       -3.90109        1.33178
H          1.79793       -4.21739       -0.13520
H          0.81607       -1.54938        0.72561
H         -0.79193        3.28786       -1.27397
H         -1.47960        1.66836       -1.58906
H         -3.26336        3.25432       -0.86106
H         -3.05267        1.90527        0.25357
H         -2.14096        4.65724        0.70569
H         -3.00043        3.68624        1.70198
H          0.62181        1.79201       -0.17534
H         -0.39407        2.43513        1.01547
C         -1.28596        2.42170       -0.82471
C         -2.57905        2.81560       -0.12389
N         -0.36021        1.84404        0.17931
N         -2.26634        3.69594        1.00463
H         -0.67023        0.88218        0.44974
