40
2msa1dma1eda_456.log	Energy: -1038010.6424366
S         -2.18438       -1.14121       -0.52310
O         -2.24671       -0.12065       -1.56365
O         -1.99642       -0.66738        0.85144
O         -1.12136       -2.23965       -0.86558
H         -0.15303       -1.89911       -0.68974
C         -3.65601       -2.13382       -0.58762
H         -4.49393       -1.46912       -0.37545
H         -3.74275       -2.55808       -1.58756
H         -3.57860       -2.91540        0.16731
S          2.00290       -1.41906        0.74298
O          2.27571       -2.79516        1.12852
O          1.14619       -1.27429       -0.49297
O          3.21183       -0.55452        0.55739
H          3.04801        0.53325       -0.54731
C          1.06959       -0.64338        2.05354
H          0.10877       -1.15110        2.14615
H          1.65129       -0.72834        2.97201
H          0.91449        0.40416        1.78778
N         -1.13804        2.23659        1.22568
C         -2.26273        2.80296        0.48944
C         -1.08144        2.69839        2.60534
H         -1.25198        1.22425        1.21440
H         -2.11183        3.88034        0.35071
H         -2.32456        2.32658       -0.49259
H         -3.22761        2.65940        1.00233
H         -0.88665        3.77653        2.62710
H         -2.01473        2.51233        3.16194
H         -0.26155        2.19918        3.12979
H          2.18824        1.75428       -3.15095
H          1.84633        0.10612       -2.53484
H         -0.14555        1.75346       -2.38104
H          0.29507        0.91213       -0.90584
H          0.68042        3.72840       -1.42659
H          0.32592        2.89798       -0.03324
H          3.93266        1.41796       -1.68308
H          2.74794        2.20721       -0.76902
C          1.92536        1.16059       -2.27066
C          0.63375        1.66721       -1.61752
N          3.01034        1.33102       -1.26533
N          0.90375        2.90288       -0.88273
