38
2msa2dma_25.log	Energy: -1003288.0316027
S          1.32398        1.84413        0.15605
O          0.84521        1.15404        1.36781
O          0.30929        1.74890       -0.96525
O          2.65477        1.42962       -0.31527
C          1.42366        3.58232        0.54317
H          0.44231        3.91444        0.88311
H          2.16745        3.70852        1.33031
H          1.72377        4.11421       -0.35972
S         -2.50048       -0.00239       -0.18992
O         -2.16750       -0.33134        1.20259
O         -2.02734       -0.96348       -1.18684
O         -2.06819        1.44231       -0.54512
H         -0.99719        1.56440       -0.69660
C         -4.26514        0.16049       -0.31617
H         -4.59256        0.91883        0.39434
H         -4.50837        0.44653       -1.33902
H         -4.69628       -0.81079       -0.07256
N          0.38603       -1.67007        1.19192
C         -0.35890       -2.91995        0.94966
C          1.27054       -1.70135        2.37199
H          0.99608       -1.47256        0.31477
H         -0.98997       -3.14798        1.81036
H         -0.98185       -2.77723        0.06599
H          0.35547       -3.72991        0.78570
H          0.68273       -1.90910        3.26837
H          2.01957       -2.48442        2.23429
H          1.74695       -0.72509        2.45574
H         -0.28214       -0.89070        1.28709
N          1.98202       -1.37359       -1.01171
C          1.16734       -1.40997       -2.22725
C          3.03420       -2.38404       -0.99791
H          2.39959       -0.44399       -0.91859
H          0.62422       -2.35966       -2.27705
H          0.43620       -0.60115       -2.19368
H          1.77624       -1.30978       -3.13726
H          2.58592       -3.38417       -0.97730
H          3.68951       -2.32697       -1.87946
H          3.64989       -2.26103       -0.10255
