40
2msa1dma1eda_467.log	Energy: -1038008.7846509
S          1.17450        2.03044       -0.01048
O          2.47825        1.47632        0.39603
O          0.12238        1.90111        1.03491
O          0.69998        1.47983       -1.32120
C          1.40378        3.78015       -0.28143
H          0.45319        4.21139       -0.59588
H          1.73676        4.22457        0.65676
H          2.15991        3.90691       -1.05649
S         -3.11708       -0.39378       -0.30696
O         -2.25692       -1.27430       -1.10002
O         -3.36859       -0.74825        1.07502
O         -4.52742       -0.29757       -1.10562
H         -4.74213       -1.17332       -1.45960
C         -2.61216        1.29198       -0.43770
H         -2.42461        1.51345       -1.48769
H         -3.41327        1.90699       -0.02680
H         -1.69110        1.40894        0.14885
N          0.67131       -0.92138        1.96057
C          2.00167       -0.98948        2.56128
C         -0.32004       -1.73115        2.66442
H          0.37612        0.05790        1.94339
H          2.40510       -2.00303        2.45025
H          2.65326       -0.27974        2.04601
H          1.98714       -0.74716        3.63428
H         -0.05801       -2.79109        2.57295
H         -0.37830       -1.48761        3.73565
H         -1.30691       -1.57928        2.22063
H          1.53194       -3.09563       -1.10555
H          1.55293       -1.99879       -2.49487
H          3.12436       -0.47940       -1.15955
H          3.18135       -1.72278        0.07824
H          4.15641       -2.03899       -2.66253
H          4.96680       -2.25205       -1.26409
H         -0.33173       -1.54204       -1.01609
H          0.68720       -1.19256        0.29188
C          1.67011       -2.05530       -1.40848
C          3.05360       -1.56318       -0.99651
N          0.61495       -1.22558       -0.78788
N          4.05905       -2.35304       -1.70243
H          0.67418       -0.22842       -1.10495
