40
2msa1dma1eda_241.log	Energy: -1038021.3575436
S         -0.93495       -2.19788       -0.27371
O         -2.14048       -2.96325       -0.02449
O         -0.38999       -1.71067        1.12437
O         -1.02797       -1.03869       -1.17161
H         -1.16440        1.78113       -0.90069
C          0.35424       -3.25927       -0.87520
H          0.44653       -4.09287       -0.17888
H          0.05030       -3.61072       -1.86190
H          1.27827       -2.67629       -0.91868
S          2.57504        0.14958        0.28958
O          2.88927        1.31037       -0.55740
O          2.77563       -1.17445       -0.30904
O          1.15329        0.29340        0.83382
H          0.28183       -0.95040        1.01643
C          3.61033        0.23937        1.73911
H          4.64546        0.13883        1.41141
H          3.44933        1.20341        2.22135
H          3.33731       -0.57884        2.40571
N         -0.12012        1.91220       -1.04327
C          0.29895        3.26484       -0.63043
C          0.23706        1.57952       -2.43940
H          0.33858        1.22649       -0.40961
H         -0.19190        4.00568       -1.26461
H          0.00981        3.41928        0.40957
H          1.38358        3.33605       -0.72086
H         -0.26053        2.28103       -3.11250
H          1.32064        1.64579       -2.54568
H         -0.09361        0.56046       -2.63735
H         -2.65279       -0.19756        1.53589
H         -3.57822        0.91173        2.52633
H         -4.58177        0.92212        0.39942
H         -3.79876        2.49191        0.61864
H         -2.62265        0.28927       -0.94588
H         -3.39825        1.58677       -1.56867
H         -0.80768        1.17274        1.61881
H         -1.68415        2.53216        2.01310
C         -2.87133        0.86465        1.68819
C         -3.60497        1.42276        0.46512
N         -1.63782        1.52325        2.07921
N         -2.83807        1.27452       -0.78090
