30
2msa1eda_64.log	Energy: -953203.2340989
S         -2.40745       -0.05998       -0.06892
O         -1.89565       -1.46043        0.10550
O         -1.81397        0.61948       -1.23757
O         -2.27795        0.73867        1.17917
C         -4.15070       -0.26189       -0.36510
H         -4.58358       -0.77713        0.49210
H         -4.58867        0.72936       -0.48329
H         -4.27248       -0.84953       -1.27493
S          1.56474       -1.68609        0.16721
O          1.53626       -2.03207        1.57721
O          1.75599       -0.25127       -0.14101
O          0.33835       -2.23875       -0.61099
H         -0.60224       -1.86950       -0.29272
C          2.86407       -2.57683       -0.65241
H          3.80344       -2.24980       -0.20604
H          2.70408       -3.64058       -0.47843
H          2.83114       -2.34302       -1.71591
H          0.34924        3.92657        0.75056
H          1.07808        2.87609        1.99038
H          2.74220        3.97119        0.37298
H          2.87804        2.21699        0.51971
H          2.57687        3.52188       -1.83018
H          2.10764        1.96628       -1.60912
H         -0.77572        1.67088        0.97560
H         -0.22626        2.02485       -0.53132
C          0.91412        3.00733        0.91865
C          2.23690        3.02732        0.15072
N          0.09012        1.87885        0.43437
N          1.97897        2.91820       -1.28249
H          0.64738        1.00262        0.39518
