38
2msa1ma1tma_08.log	Energy: -1003296.7768445
S          1.85812       -1.08723       -0.48004
O          3.15984       -0.40561       -0.53930
O          0.90097       -0.41610        0.46399
O          1.89678       -2.54391       -0.17260
H          0.34144       -2.82107        0.55429
C          1.11139       -0.94888       -2.09698
H          1.74693       -1.48107       -2.80550
H          0.10862       -1.37609       -2.04819
H          1.03039        0.10665       -2.35559
S         -2.17659        0.25615       -0.35587
O         -2.00320       -1.18383       -0.74434
O         -1.33909        1.17368       -1.16094
O         -2.06436        0.46543        1.10220
H          0.75303        1.19358        0.45087
C         -3.87073        0.62473       -0.79929
H         -3.99499        0.44407       -1.86719
H         -4.52714       -0.02442       -0.21931
H         -4.06322        1.67194       -0.56341
N         -0.65115       -2.80733        0.88993
H         -1.17889       -2.14267        0.24930
C         -0.73706       -2.32475        2.28717
H         -1.78348       -2.27697        2.58704
H         -0.17528       -2.99349        2.94016
H         -0.31127       -1.32372        2.30148
H         -1.04675       -3.73829        0.78400
N          1.03810        2.21099        0.53810
C          1.42292        2.65388       -0.82445
H          2.25407        2.03194       -1.16203
H          0.55762        2.51923       -1.47374
H          1.72628        3.70325       -0.78676
C         -0.09576        2.99775        1.07658
H         -0.90208        2.96760        0.34600
H         -0.44292        2.52879        1.99658
H          0.24048        4.02172        1.26043
C          2.20480        2.19583        1.45373
H          1.87433        1.83885        2.42957
H          2.94772        1.50641        1.04818
H          2.61106        3.20665        1.53953
