37
2msa1ma1eda_469.log	Energy: -1013352.8764389
S         -0.71695        1.90415       -0.51044
O         -2.15572        2.25368       -0.70063
O         -0.08254        1.26119       -1.66493
O         -0.55366        1.10909        0.75861
H         -0.12351       -0.35436        0.76752
C          0.11995        3.44779       -0.21596
H          0.00103        4.06596       -1.10595
H         -0.33106        3.92618        0.65308
H          1.17305        3.22935       -0.03664
S         -0.54690       -2.31077       -0.13978
O         -0.31841       -3.65821        0.32997
O          0.14776       -1.33017        0.88781
O         -1.94613       -1.87632       -0.32501
H         -2.92774       -0.59362        0.11287
C          0.31575       -2.02239       -1.66097
H          1.37863       -2.20525       -1.47353
H         -0.09221       -2.72035       -2.39322
H          0.13948       -0.98414       -1.95344
N         -3.51643        0.22023        0.39900
H         -3.09358        1.06560       -0.07734
C         -3.47399        0.38281        1.87169
H         -4.10162        1.22547        2.16131
H         -3.82183       -0.53263        2.34968
H         -2.43746        0.58299        2.14135
H         -4.46168        0.07152        0.05326
H          3.80301        0.16217       -1.27743
H          2.08553        0.22034       -0.91677
H          3.17338        2.05070        0.22248
H          2.58105        0.89322        1.42524
H          5.37798        1.15217        0.57460
H          4.76583        1.35801        2.07837
H          4.02679       -1.56358        0.36836
H          2.42470       -1.54971        0.65882
C          3.06697        0.01496       -0.47562
C          3.32563        1.03728        0.63363
N          3.12417       -1.38128       -0.06024
N          4.65305        0.84234        1.21377
