26
2msa2a_39.log	Energy: -904641.9963467
S         -2.09058       -0.10586       -0.31518
O         -1.02952        0.26153       -1.29645
O         -2.05320        0.74970        0.90180
O         -2.07056       -1.55285        0.03071
H         -1.09575       -1.70040        1.50779
C         -3.63398        0.21361       -1.13810
H         -3.66647        1.27241       -1.39505
H         -3.67192       -0.40451       -2.03502
H         -4.44094       -0.04485       -0.45265
S          2.28803       -0.33307       -0.21251
O          3.45763       -1.18229       -0.27060
O          1.63878       -0.15646        1.10489
O          1.23986       -0.90670       -1.23225
H          0.33701       -0.42968       -1.22519
C          2.66039        1.28810       -0.82758
H          3.49171        1.66758       -0.23162
H          2.95210        1.18367       -1.87258
H          1.77761        1.92252       -0.68707
N          0.34898        2.80129        0.86967
H          0.87437        2.41428        1.64730
H         -0.49093        2.23448        0.76293
H          0.06175        3.74030        1.12305
N         -0.58156       -1.17822        2.25261
H         -0.52170       -1.68380        3.13075
H         -1.12151       -0.30345        2.32740
H          0.36123       -0.92088        1.87625
