34
2msa1a1eda_104.log	Energy: -988706.7717760
S          2.75723       -0.47883        0.23099
O          4.21134       -0.53104        0.31749
O          2.21335       -0.73230       -1.14662
O          2.16040        0.78924        0.77078
H          0.62241        1.31021        0.80245
C          2.09025       -1.78838        1.24397
H          2.47155       -2.73401        0.85686
H          2.43543       -1.63011        2.26636
H          1.00165       -1.74088        1.17690
S         -2.19183       -0.87436       -0.23111
O         -3.36163       -0.35813        0.50682
O         -0.90395       -0.63114        0.46717
O         -2.12947       -0.37156       -1.64272
H         -0.66008        0.27406       -1.95126
C         -2.39411       -2.64169       -0.35924
H         -2.44890       -3.05170        0.64960
H         -3.31845       -2.83841       -0.90261
H         -1.53498       -3.04710       -0.89421
N         -2.12275        1.34535        2.58018
H         -1.72441        0.67714        3.23393
H         -2.72517        0.80177        1.95099
H         -2.70556        1.98308        3.11288
H          1.27880        2.47304       -1.42687
H         -0.11628        2.75123       -2.48846
H         -0.93200        3.48862       -0.45785
H         -1.60033        1.86296       -0.57151
H          0.45393        2.88087        1.22188
H         -0.85165        1.84256        1.56130
H          0.55180        0.67003       -3.04479
H          1.02491        0.14633       -1.54590
C          0.25356        2.16250       -1.64609
C         -0.67286        2.42753       -0.46191
N          0.28398        0.73765       -2.06475
N         -0.08271        2.09574        0.85724
