25
2msa1ma_73.log	Energy: -893786.8031146
S         -2.33229        0.14161       -0.14055
O         -3.70401        0.38863       -0.52083
O         -1.23922        0.53661       -1.02464
O         -2.20626       -1.42597        0.14854
H         -1.27488       -1.72656        0.02735
C         -2.02926        0.85635        1.46070
H         -2.15075        1.93502        1.35202
H         -2.76419        0.45629        2.15892
H         -1.00880        0.60990        1.75842
S          1.43081       -1.07531        0.07222
O          1.19976       -0.14052        1.15858
O          0.43548       -2.13503       -0.12681
O          2.84598       -1.82463        0.30402
H          2.68268       -2.65435        0.77731
C          1.78980       -0.23196       -1.43552
H          0.83528        0.18754       -1.76006
H          2.50106        0.56838       -1.19782
H          2.17124       -0.96139       -2.14886
N          2.67576        2.40110        0.13166
H          2.62037        1.88222        1.00256
C          1.38878        3.03645       -0.15595
H          1.06067        3.76206        0.60217
H          1.44670        3.55268       -1.11839
H          0.61707        2.26621       -0.24279
H          3.40716        3.09565        0.23447
