37
2msa1ma1eda_443.log	Energy: -1013352.9785033
S         -0.19289        1.74753        0.27923
O          0.88587        2.71807        0.62904
O         -0.57232        0.85335        1.38435
O          0.21548        0.98839       -0.96010
H          0.36647       -0.52319       -1.05320
C         -1.62387        2.69348       -0.17698
H         -1.93218        3.26255        0.70100
H         -1.34098        3.36261       -0.98987
H         -2.41484        2.00203       -0.49138
S          1.48946       -2.10929       -0.06758
O          1.88695       -3.43594       -0.48183
O          0.53288       -1.52456       -1.17173
O          2.55255       -1.12480        0.21167
H          2.80543        0.49136       -0.26074
C          0.46086       -2.19958        1.37686
H         -0.37445       -2.86136        1.14633
H          1.07138       -2.61025        2.18195
H          0.11504       -1.18939        1.60994
N          2.99287        1.48713       -0.50747
H          2.75444        1.58826       -1.49315
C          4.38780        1.86896       -0.20803
H          4.54056        2.91952       -0.45427
H          4.56488        1.71448        0.85557
H          5.06999        1.24442       -0.78434
H          2.27583        2.06060        0.01617
H         -4.92047       -1.40387       -0.71257
H         -3.82035       -0.93550       -2.02341
H         -2.64099       -2.21740       -0.26355
H         -1.99663       -0.58840       -0.44266
H         -3.36500       -1.64036        1.85437
H         -2.32842       -0.35423        1.71634
H         -5.16772        0.94749       -1.27969
H         -4.51753        0.79992        0.22218
C         -4.06263       -0.75955       -0.96939
C         -2.86843       -1.15431       -0.10346
N         -4.33848        0.66202       -0.77059
N         -3.12059       -0.83075        1.29999
