44
2msa2tma_12.log	Energy: -1052601.4037357
S         -3.22710       -0.39940        0.46180
O         -2.61921       -1.70388        0.72693
O         -3.25055        0.03929       -0.93042
O         -2.58463        0.70216        1.37708
H         -1.59619        0.87724        1.09795
C         -4.87863       -0.39172        1.11534
H         -5.43963       -1.14600        0.56289
H         -4.83148       -0.64153        2.17482
H         -5.30679        0.59825        0.96136
S          0.25815        1.79240       -0.54339
O          1.34480        2.72249       -0.24428
O         -0.21714        1.03979        0.67539
O          0.56682        0.81632       -1.63196
H          0.56471       -0.70291       -1.09225
C         -1.14315        2.73335       -1.11618
H         -1.41997        3.43982       -0.33286
H         -0.83514        3.26467       -2.01710
H         -1.95907        2.04046       -1.33033
N          0.69197       -1.74745       -0.97565
C         -0.41806       -2.40043       -1.70970
H         -1.35820       -2.15239       -1.21755
H         -0.42269       -2.02798       -2.73472
H         -0.26332       -3.48221       -1.69955
C          2.01437       -2.03322       -1.58130
H          2.01226       -1.67506       -2.61133
H          2.76203       -1.49600       -0.99443
H          2.19703       -3.11034       -1.55209
C          0.67858       -2.07114        0.47344
H          1.47433       -1.49415        0.94483
H         -0.29384       -1.80188        0.88338
H          0.85513       -3.14369        0.59174
N          3.62474       -0.22891        0.81422
C          3.08311        0.45606        1.98175
H          2.31734        1.16919        1.67093
H          2.62527       -0.27089        2.66142
H          3.86746        0.99922        2.54137
C          4.61997       -1.21213        1.20274
H          4.17544       -1.94769        1.88169
H          4.99045       -1.74087        0.31750
H          5.48939       -0.75621        1.71348
C          4.17641        0.73159       -0.13381
H          4.51663        0.21053       -1.03584
H          3.40848        1.45581       -0.41448
H          5.04029        1.27773        0.28912
