35
2msa1ma1dma_281.log	Energy: -978616.1562115
S          0.72502       -1.37235       -0.52155
O          1.27620       -0.64528       -1.67817
O         -0.41067       -2.26134       -0.78413
O          0.37488       -0.35777        0.57685
H         -1.07364       -0.28795        1.10640
C          2.03825       -2.34037        0.19006
H          2.34398       -3.07299       -0.55779
H          2.86766       -1.67491        0.45023
H          1.64331       -2.84029        1.07490
S         -3.04810        0.33548        0.39361
O         -4.21855        0.83040        1.08317
O         -2.00043       -0.09929        1.48860
O         -2.38400        1.23473       -0.57077
H         -0.83464        1.95028       -0.57934
C         -3.42748       -1.16994       -0.46514
H         -4.12362       -0.91358       -1.26443
H         -2.49607       -1.58966       -0.85497
H         -3.89206       -1.84760        0.25123
N          0.19377        2.10634       -0.49896
H          0.35600        2.84659        0.18021
C          0.81704        2.39727       -1.81245
H          1.88177        2.57898       -1.66873
H          0.68871        1.51643       -2.43928
H          0.33787        3.27109       -2.25360
H          0.52174        1.19290       -0.09164
N          4.19672        0.23352        1.00708
C          3.29493        0.76472        2.01737
C          4.06609        0.90024       -0.27850
H          5.15448        0.29527        1.33255
H          2.26155        0.53575        1.73669
H          3.48882        0.28046        2.97800
H          3.38929        1.85786        2.15590
H          3.09993        0.64512       -0.72763
H          4.14877        2.00184       -0.20816
H          4.83943        0.54207       -0.96282
