37
2msa1ma1eda_187.log	Energy: -1013360.4869616
S          1.53198       -1.90853        0.16939
O          1.00650       -3.03892        0.90990
O          1.89441       -0.70919        0.95296
O          0.60091       -1.48685       -1.00853
H         -0.44634       -1.47143       -0.80078
C          2.98332       -2.38497       -0.73786
H          3.74068       -2.66110       -0.00384
H          2.72498       -3.23503       -1.36872
H          3.31506       -1.53687       -1.33651
S         -2.59326       -0.20890       -0.23024
O         -1.82347       -1.43777       -0.62566
O         -2.34381        0.93503       -1.12499
O         -2.40857        0.11763        1.20897
H         -0.91691        0.84059        1.61183
C         -4.29528       -0.69154       -0.41857
H         -4.45988       -0.94327       -1.46606
H         -4.47787       -1.55301        0.22332
H         -4.91555        0.15413       -0.12101
N          0.03146        1.27717        1.66814
H          0.71975        0.52257        1.50904
C          0.25597        1.96187        2.95326
H          1.25186        2.40698        2.96250
H         -0.49418        2.74282        3.07987
H          0.17406        1.24359        3.76898
H          0.09427        1.93888        0.83676
H          2.51411        3.42788       -1.64209
H          2.98956        1.81177       -2.12353
H          0.66571        2.14979       -2.69761
H          0.77963        0.90597       -1.45457
H          0.04895        3.69721       -0.90474
H         -0.95665        2.39223       -0.94244
H          2.46550        2.73660        0.60913
H          2.76936        1.16883        0.22107
C          2.37424        2.36504       -1.40471
C          0.91310        1.97691       -1.64048
N          2.91224        2.13239       -0.07124
N         -0.00108        2.69564       -0.73948
