43
2msa1eda1tma_254.log	Energy: -1062668.0316965
S          1.68994        1.11689       -1.33871
O          2.62065        2.15761       -1.75682
O          1.03798        1.38537       -0.00126
O          2.29393       -0.25923       -1.26251
H          2.39643       -0.66247        0.26510
C          0.36609        1.01616       -2.52431
H         -0.13531        1.98459       -2.54694
H          0.81409        0.79779       -3.49427
H         -0.31734        0.21967       -2.21946
S         -2.20642        1.17991        0.76374
O         -1.55889        0.09121        1.50067
O         -2.84374        0.85048       -0.50128
O         -1.19196        2.37273        0.58920
H         -0.26760        2.02278        0.30178
C         -3.39760        1.96518        1.82315
H         -4.18524        1.23393        2.00723
H         -2.90431        2.24924        2.75189
H         -3.79558        2.83707        1.30459
H         -2.68359       -2.28701        0.51806
H         -2.97869       -3.88000       -0.20404
H         -0.61553       -3.58807        0.24776
H         -0.88653       -3.68666       -1.50584
H         -0.53451       -1.14017       -0.07505
H          0.54145       -1.80677       -1.14491
H         -4.15846       -2.15743       -1.40636
H         -2.75549       -1.40544       -1.74959
C         -2.54189       -2.89264       -0.39409
C         -1.04360       -3.05744       -0.62341
N         -3.17132       -2.31666       -1.57615
N         -0.43436       -1.75863       -0.87491
N          2.63670       -0.91644        1.27437
C          3.52162       -2.10019        1.20078
H          2.97925       -2.91611        0.72173
H          4.39738       -1.84792        0.60205
H          3.82427       -2.39369        2.20870
C          3.33720        0.26814        1.83085
H          4.20106        0.49048        1.20318
H          2.64788        1.11140        1.79975
H          3.65298        0.05196        2.85423
C          1.37856       -1.20020        2.00765
H          0.70452       -0.34986        1.89869
H          0.90785       -2.08153        1.57053
H          1.61146       -1.38185        3.05989
