37
2msa1ma1eda_25.log	Energy: -1013375.2094319
S          2.38207       -0.99973       -0.29680
O          1.97046       -0.68724        1.08602
O          2.28323        0.17221       -1.21109
O          1.69080       -2.20615       -0.84077
C          4.11445       -1.42724       -0.26336
H          4.66759       -0.57220        0.12584
H          4.23892       -2.29324        0.38693
H          4.42823       -1.65878       -1.28117
S         -2.81541        0.08978       -0.23299
O         -2.14909        0.22996        1.07706
O         -2.77074       -1.31170       -0.74692
O         -2.33228        1.08088       -1.23400
C         -4.54835        0.44721       -0.00335
H         -4.94885       -0.26510        0.71823
H         -4.63989        1.46694        0.37110
H         -5.04781        0.34316       -0.96656
N         -0.72320       -2.78722        0.20733
H          0.19114       -2.51926       -0.24477
H         -1.50203       -2.20718       -0.20593
C         -0.64573       -2.57724        1.67298
H         -0.49721       -1.51392        1.84868
H         -1.58097       -2.89687        2.13251
H          0.19841       -3.13833        2.07279
H         -0.90397       -3.76167       -0.02272
H         -0.50098        2.70845        1.05884
H          0.35515        1.16285        1.21240
H          1.79149        3.03193        2.05146
H          2.49657        2.22778        0.64485
H          1.19766        4.85445        0.64077
H          2.64362        4.42334        0.00944
H         -0.73851        1.59307       -0.98939
H          0.43820        2.80529       -1.20545
C          0.36646        2.13552        0.72200
C          1.67457        2.87084        0.97234
N          0.22560        1.91807       -0.74013
N          1.69806        4.10295        0.17837
H          0.93607        1.21369       -1.04612
