34
2msa1a1eda_157.log	Energy: -988702.4740076
S         -2.27342       -1.20087        0.19695
O         -2.77947       -2.53360       -0.06406
O         -3.17397       -0.05647        0.06850
O         -1.05384       -0.85919       -0.76108
C         -1.51950       -1.16855        1.80945
H         -0.74070       -1.93205        1.83588
H         -1.09260       -0.17512        1.96236
H         -2.30508       -1.38455        2.53441
S          2.25902       -0.83169       -0.22721
O          2.36913        0.02363        0.97316
O          2.12615       -0.04777       -1.48424
O          1.17784       -1.86520       -0.10656
H         -0.19892       -1.38816       -0.55666
C          3.77292       -1.76015       -0.35684
H          4.59353       -1.04893       -0.45205
H          3.88116       -2.35626        0.54921
H          3.70745       -2.39907       -1.23728
N         -2.42826        2.11283       -1.93230
H         -2.99247        2.95602       -1.90709
H         -2.86151        1.42766       -1.30699
H         -2.49660        1.73388       -2.87223
H          1.97179        2.42164       -0.13400
H          0.94564        3.68612       -0.85517
H          1.14925        3.82894        1.66530
H         -0.52861        3.67298        1.12037
H          1.06844        1.35401        1.99788
H         -0.15702        2.07718        2.85134
H          0.71842        1.11384       -1.38104
H         -0.20797        1.14768       -0.02918
C          0.95385        2.81227       -0.20138
C          0.42920        3.14544        1.19384
N          0.12799        1.73854       -0.80125
N          0.21046        1.90160        1.92417
H         -0.74071        2.04891       -1.31139
