37
2msa1ma1eda_444.log	Energy: -1013350.5412315
S          2.35502       -0.69637       -0.73924
O          3.16176       -0.85798        0.48838
O          2.62405        0.54158       -1.49274
O          0.88176       -0.86022       -0.46347
C          2.78254       -2.06578       -1.80565
H          3.84734       -1.98984       -2.02772
H          2.56853       -2.99638       -1.27936
H          2.19478       -1.98861       -2.72076
S         -2.58118       -0.85940        0.05591
O         -2.06770       -0.21825        1.26074
O         -2.66785       -0.11216       -1.18221
O         -4.08438       -1.36825        0.41493
H         -4.28152       -1.09695        1.32290
C         -1.75076       -2.39473       -0.23171
H         -0.71107       -2.13070       -0.45954
H         -1.81548       -2.99068        0.67837
H         -2.24054       -2.88882       -1.07072
N          2.07045        0.94527        2.56136
H          2.74480        0.51340        1.92325
C          1.34379       -0.12859        3.24965
H          1.99246       -0.78322        3.84412
H          0.58015        0.29904        3.90630
H          0.84332       -0.74350        2.49697
H          2.58431        1.51750        3.22277
H          0.54191        3.62200        0.13233
H          1.46205        2.43529       -0.84867
H         -0.41996        3.42725       -2.17990
H         -0.61306        1.69171       -1.93997
H         -2.28016        3.77236       -0.85694
H         -2.60323        2.17075       -1.09616
H          0.88644        1.58663        1.41479
H         -0.76312        1.69868        0.92045
C          0.49626        2.66385       -0.39321
C         -0.62543        2.65815       -1.42617
N          0.20658        1.60755        0.60162
N         -1.91564        2.83386       -0.75911
H          0.31135        0.66463        0.16128
