44
2msa2tma_69.log	Energy: -1052594.6580528
S          1.64442       -2.16818        0.00638
O          2.43077       -3.37409       -0.15477
O          1.69497       -1.43297        1.26697
O          0.12435       -2.57417       -0.27803
H         -0.48311       -1.85475        0.05497
C          1.99735       -1.03827       -1.31782
H          2.98156       -0.59586       -1.13175
H          1.97157       -1.59815       -2.25273
H          1.24067       -0.25072       -1.29421
S         -1.14670        0.75789        0.66794
O         -0.20338        1.23034       -0.34996
O         -1.54383       -0.67912        0.49591
O         -2.40053        1.58661        0.75432
H         -3.53092        0.84971        0.03685
C         -0.35870        0.88868        2.25595
H          0.51322        0.23130        2.23337
H         -0.07147        1.93032        2.40215
H         -1.06985        0.56946        3.01766
N          3.93983        1.44224       -0.44242
C          3.41415        2.36224       -1.43457
H          3.92889        2.21475       -2.38954
H          2.34629        2.17467       -1.58087
H          3.53796        3.42189       -1.13646
C          3.20243        1.54636        0.80627
H          2.13997        1.37486        0.61534
H          3.54748        0.78292        1.50853
H          3.31948        2.54282        1.27686
C          5.36320        1.63192       -0.23912
H          5.73636        0.89146        0.47442
H          5.89561        1.49517       -1.18542
H          5.60391        2.64060        0.15115
N         -4.31800        0.33208       -0.49004
C         -4.71477       -0.81878        0.35693
H         -3.81914       -1.40662        0.55938
H         -5.12000       -0.43836        1.29523
H         -5.46931       -1.41225       -0.16506
C         -5.41878        1.30104       -0.68097
H         -5.74933        1.65813        0.29494
H         -5.04817        2.14412       -1.26468
H         -6.24873        0.81894       -1.20329
C         -3.73710       -0.11428       -1.78082
H         -3.36229        0.75957       -2.31494
H         -2.90629       -0.78590       -1.56487
H         -4.50629       -0.61996       -2.36961
