40
2msa1dma1eda_333.log	Energy: -1038017.1407239
S          2.55249       -0.10835        0.17870
O          2.05875        0.91265        1.11310
O          2.23485        0.09876       -1.22992
O          2.12476       -1.53200        0.65460
H          1.07353       -1.63728        0.70377
C          4.31244       -0.24759        0.37186
H          4.74330        0.70356        0.05810
H          4.52943       -0.44646        1.42078
H          4.66297       -1.05885       -0.26552
S         -1.33502       -2.06372       -0.24320
O         -2.03307       -3.31011        0.03524
O         -0.32342       -1.68621        0.81933
O         -2.21717       -0.87848       -0.46814
H         -1.77332        0.31748        0.64317
C         -0.39133       -2.27763       -1.74368
H          0.26345       -3.13947       -1.60906
H         -1.09879       -2.46193       -2.55267
H          0.19611       -1.37746       -1.93273
N         -1.73996        1.12709        1.31079
C         -0.99201        0.75235        2.53159
C         -3.13672        1.52836        1.56681
H         -1.20925        1.89873        0.82205
H         -1.41729       -0.16156        2.94630
H          0.04856        0.57616        2.26117
H         -1.06159        1.56921        3.25363
H         -3.65026        0.71791        2.08597
H         -3.15388        2.43389        2.17623
H         -3.63458        1.70800        0.61379
H         -0.28456        0.79157       -1.30999
H         -0.23786        1.45515       -2.93853
H          1.23467        2.79701       -1.68648
H         -0.23511        3.77860       -1.83187
H          0.82445        2.42071        0.50361
H          0.17572        3.91628        0.39896
H         -2.51273        1.01773       -1.82870
H         -2.28447        2.49017       -1.14682
C         -0.57235        1.66214       -1.91623
C          0.18418        2.87036       -1.38573
N         -2.01496        1.89798       -1.92546
N          0.06051        2.95768        0.08689
