37
2msa1ma1eda_411.log	Energy: -1013353.8234637
S          2.05908        0.08866       -1.02058
O          1.89162        1.42167       -1.60740
O          0.84171       -0.78462       -1.16852
O          2.51074        0.09576        0.40309
H          1.27356        0.26052        1.47234
C          3.34188       -0.75590       -1.92196
H          3.03987       -0.80852       -2.96800
H          4.26093       -0.17974       -1.81360
H          3.45829       -1.75402       -1.49993
S         -2.53642       -0.11509       -0.45021
O         -3.34001        1.09253       -0.41690
O         -1.85954       -0.53067        0.79060
O         -1.51072       -0.02876       -1.62697
H         -0.54079       -0.29159       -1.39235
C         -3.56221       -1.47775       -0.95235
H         -4.34134       -1.59428       -0.19840
H         -3.99716       -1.23560       -1.92189
H         -2.93962       -2.37073       -1.01147
N          0.23683       -2.80559        1.12703
H          0.53392       -2.19707        0.36885
C          1.27955       -3.00304        2.11828
H          1.65036       -2.08819        2.61727
H          0.92803       -3.68838        2.89584
H          2.14821       -3.46858        1.64451
H         -0.61137       -2.41313        1.51730
H         -0.60064        2.06600        2.93456
H          1.16505        2.08410        3.16448
H          0.38891        3.81293        1.49275
H          1.53430        2.65120        0.81213
H         -1.30582        2.76804        0.18340
H          0.00655        2.36719       -0.75633
H          0.38419       -0.16710        2.84424
H         -0.40526        0.24113        1.43813
C          0.36300        1.89474        2.44704
C          0.51605        2.76284        1.19550
N          0.41008        0.46373        2.04618
N         -0.40302        2.30985        0.16945
