28
2msa1dma_06.log	Energy: -918474.0267098
S         -1.98675       -0.98844        0.02961
O         -3.19367       -1.51845        0.64362
O         -0.90947       -0.63893        1.04380
O         -2.19114        0.19653       -0.85816
H         -1.21165        1.39860       -0.43086
C         -1.27145       -2.25564       -1.00230
H         -1.06608       -3.12603       -0.37794
H         -2.00675       -2.50356       -1.76816
H         -0.35466       -1.87036       -1.45243
S          2.17127       -0.32178       -0.04569
O          1.96481        1.08825        0.33687
O          1.81917       -0.66416       -1.41770
O          1.46035       -1.25887        0.97518
H          0.41421       -1.04679        1.01338
C          3.86761       -0.73242        0.26924
H          4.47377       -0.11540       -0.39443
H          4.08566       -0.51425        1.31402
H          4.00755       -1.79053        0.04968
N         -0.58612        2.17915       -0.07994
C         -1.09783        2.61883        1.23605
C         -0.50321        3.24282       -1.09914
H          0.35329        1.76039        0.05432
H         -2.10139        3.02713        1.10868
H         -1.13449        1.74467        1.88640
H         -0.43095        3.37702        1.65017
H         -1.49885        3.65431       -1.27045
H          0.17117        4.02832       -0.75392
H         -0.12126        2.80945       -2.02349
