38
2msa2dma_136.log	Energy: -1003279.6870885
S          1.43019        1.92295        0.20547
O          2.37148        1.32867       -0.76268
O          1.55402        1.43929        1.57536
O         -0.02946        1.78588       -0.31698
H         -0.28388        0.75073       -0.42285
C          1.62512        3.68500        0.16240
H          2.63721        3.90083        0.50562
H          1.47903        4.02519       -0.86217
H          0.88714        4.12258        0.83430
S         -0.84635       -1.59151        0.48901
O         -1.99024       -2.40840        0.10394
O         -0.45033       -0.60868       -0.60920
O          0.37522       -2.35280        0.88733
H          1.65783       -1.79043        0.08195
C         -1.30844       -0.58529        1.88222
H         -2.14287        0.04097        1.55140
H         -1.60713       -1.26168        2.68375
H         -0.44701        0.01628        2.17876
N         -3.42567        0.56199       -0.42601
C         -3.60316        1.86108       -1.04931
C         -4.66701       -0.17910       -0.27658
H         -2.76738        0.00765       -0.96478
H         -4.21192        2.49856       -0.39774
H         -2.62992        2.34310       -1.17698
H         -4.10489        1.81468       -2.03283
H         -5.32182        0.34384        0.43019
H         -5.22264       -0.29930       -1.22362
H         -4.44553       -1.17165        0.12321
N          2.45480       -1.48371       -0.54468
C          2.24868       -2.11517       -1.86506
C          3.74269       -1.79853        0.10298
H          2.37473       -0.45560       -0.64807
H          2.28910       -3.19910       -1.74942
H          1.26253       -1.81994       -2.22392
H          3.02277       -1.77893       -2.55689
H          3.80787       -2.87476        0.26891
H          4.56330       -1.46822       -0.53614
H          3.78544       -1.27546        1.05832
