26
2msa2a_65.log	Energy: -904637.2568241
S          2.06627       -0.83632        0.00303
O          3.41909       -0.24565       -0.01921
O          1.26205       -0.50264       -1.21270
O          1.30085       -0.50855        1.24253
C          2.27864       -2.60775       -0.00823
H          2.81478       -2.87727       -0.91834
H          2.85390       -2.88442        0.87552
H          1.29425       -3.07631        0.01165
S         -2.85579        0.11953       -0.11496
O         -2.18465        1.40181        0.02138
O         -3.75000       -0.11710       -1.23393
O         -3.72145       -0.10010        1.24303
H         -4.63656       -0.28278        0.98568
C         -1.66008       -1.17680        0.03068
H         -0.95784       -1.07223       -0.80193
H         -1.11077       -1.04637        0.96508
H         -2.18745       -2.12979       -0.00517
N          0.58948        1.91729        0.01750
H          0.61044        1.27543        0.82709
H          1.49632        2.46575        0.01468
H          0.61509        1.26243       -0.78328
H         -0.27060        2.45990        0.01086
N          3.25573        2.73531        0.00336
H          3.66189        3.17196       -0.81814
H          3.53725        1.74739        0.00012
H          3.67693        3.17189        0.81725
