40
2msa1dma1eda_518.log	Energy: -1038008.8217807
S          1.83127       -1.47404       -0.03039
O          0.72603       -1.56118       -1.01940
O          1.48073       -0.70915        1.18391
O          3.08806       -0.95190       -0.65690
H          3.15976        0.58509       -0.26763
C          2.19528       -3.14685        0.46148
H          1.29410       -3.56665        0.90948
H          2.47855       -3.70696       -0.42970
H          3.01110       -3.12316        1.18382
S         -2.59028       -0.21054       -1.09444
O         -3.42212       -0.75715       -2.15041
O         -1.67098        0.87762       -1.42939
O         -1.77694       -1.37418       -0.38268
H         -0.80795       -1.40046       -0.65997
C         -3.61457        0.30350        0.26070
H         -4.28223        1.07482       -0.12566
H         -4.18714       -0.55865        0.60346
H         -2.94594        0.68944        1.03731
N         -0.99482        0.66964        2.22924
C         -1.52023       -0.46049        2.98088
C         -0.53047        1.74220        3.09193
H         -0.21131        0.33064        1.67442
H         -2.42824       -0.16016        3.51867
H         -1.78325       -1.26205        2.28540
H         -0.80545       -0.85934        3.72078
H         -1.38032        2.18856        3.62167
H          0.20050        1.40829        3.85003
H         -0.06220        2.52144        2.48318
H          2.87380        3.38232       -1.24780
H          3.19857        1.89724       -2.18225
H          0.76542        2.65521       -2.35751
H          0.93041        1.03982       -1.67914
H          0.24170        3.44560       -0.21089
H         -0.36734        1.93122       -0.12034
H          3.90879        2.00252        0.31492
H          2.25728        1.75828        0.56293
C          2.63914        2.31883       -1.34584
C          1.13184        2.09779       -1.48841
N          3.05423        1.63255       -0.09180
N          0.49507        2.46324       -0.22507
