44
2msa2tma_77.log	Energy: -1052592.5298168
S         -0.85911       -2.36793       -0.43056
O         -1.69595       -2.66408        0.75025
O          0.38339       -3.14078       -0.54529
O         -0.60847       -0.87809       -0.54496
C         -1.85017       -2.76295       -1.86667
H         -2.05534       -3.83368       -1.84227
H         -2.78059       -2.19596       -1.81839
H         -1.28427       -2.50346       -2.76191
S          2.96816        0.55593       -0.16147
O          2.73988        1.80341       -0.87657
O          2.43005        0.38611        1.17637
O          4.58099        0.37441       -0.04207
H          4.99546        1.13164       -0.47946
C          2.51937       -0.82957       -1.16006
H          1.43102       -0.78930       -1.26231
H          3.02814       -0.73861       -2.11934
H          2.78882       -1.74588       -0.63558
N         -2.06584        2.30941       -0.75723
C         -2.96583        1.36122       -1.39637
H         -2.51991        0.36426       -1.35015
H         -3.92653        1.34554       -0.87023
H         -3.16143        1.61589       -2.45530
C         -2.63639        3.64463       -0.72601
H         -3.59645        3.62863       -0.20033
H         -1.96408        4.32393       -0.19170
H         -2.80470        4.05825       -1.73846
C         -0.76371        2.30816       -1.41236
H         -0.07057        2.96526       -0.87852
H         -0.35345        1.29607       -1.40436
H         -0.82642        2.65569       -2.46037
N         -0.91965        0.24775        1.89745
C         -0.42400        1.63697        2.05514
H          0.64709        1.64859        1.85586
H         -0.96025        2.25953        1.33748
H         -0.62372        1.96368        3.07897
C         -2.39281        0.17113        2.06144
H         -2.84117        0.87811        1.36240
H         -2.70150       -0.84894        1.82851
H         -2.64844        0.43409        3.09095
C         -0.21571       -0.70051        2.80050
H         -0.59986       -1.70217        2.60437
H          0.85016       -0.65434        2.57835
H         -0.40472       -0.40483        3.83543
H         -0.72730       -0.08260        0.91187
