41
2msa1dma1tma_40.log	Energy: -1027944.9468670
S          0.34624       -2.22503       -0.34859
O         -0.99883       -2.60483        0.09854
O          1.45661       -2.60834        0.53610
O          0.41678       -0.72940       -0.65106
C          0.62260       -3.00641       -1.92899
H          0.57713       -4.08491       -1.77522
H         -0.16196       -2.68405       -2.61415
H          1.60581       -2.71149       -2.29596
S         -2.54724        0.91466       -0.06795
O         -3.43982        1.98828       -0.45106
O         -1.59266        1.14059        1.02156
O         -1.73557        0.48820       -1.35945
H         -0.90221       -0.02640       -1.09718
C         -3.48822       -0.54151        0.32159
H         -4.04048       -0.33096        1.23835
H         -4.17283       -0.72896       -0.50570
H         -2.78806       -1.37057        0.45172
N          2.12573        1.67008       -1.18933
C          3.36565        1.78786       -1.94027
C          1.13345        2.66254       -1.58291
H          1.73171        0.74147       -1.32187
H          3.84351        2.74805       -1.71571
H          4.05657        0.99211       -1.64508
H          3.22374        1.73348       -3.03306
H          1.49237        3.66443       -1.31960
H          0.91402        2.65630       -2.66295
H          0.19718        2.48396       -1.04795
N          1.34587        0.48649        1.75130
C          1.22141        1.95193        1.96441
H          1.73826        2.44542        1.14091
H          0.16423        2.21271        1.95863
H          1.68296        2.19997        2.92292
C          0.60689       -0.29314        2.78077
H         -0.44574       -0.01997        2.71927
H          0.73540       -1.35399        2.56355
H          1.01875       -0.05002        3.76260
C          2.77058        0.06958        1.66661
H          2.79754       -0.99065        1.41220
H          3.24055        0.66397        0.88300
H          3.24536        0.25403        2.63291
H          0.91486        0.24500        0.83506
