42
2msa2eda_602.log	Energy: -1072737.3131501
S         -0.26530       -1.43395       -0.72435
O          1.02929       -2.13318       -0.90813
O         -0.48297       -0.98606        0.68704
O         -1.42874       -2.23985       -1.20287
H         -2.59127       -2.53879        0.13387
C         -0.20980        0.01954       -1.74409
H          0.65064        0.61326       -1.43479
H         -0.10267       -0.31478       -2.77653
H         -1.13486        0.58130       -1.60680
S          3.57254        0.08012        0.17447
O          2.36757        0.90458        0.07287
O          4.59059        0.22780       -0.84922
O          3.16051       -1.43319        0.34757
H          2.30974       -1.67434       -0.15259
C          4.31889        0.34764        1.76694
H          3.55519        0.22060        2.53337
H          5.12563       -0.37481        1.88983
H          4.71254        1.36457        1.76862
H         -2.74170        0.31493        1.21803
H         -4.49246        0.55808        1.21977
H         -4.00858       -1.39881        2.51769
H         -4.79802       -1.93556        1.00826
H         -1.83044       -1.84849        1.34820
H         -2.77740       -3.22949        1.65128
H         -3.55831        0.83354       -0.96309
H         -3.08878       -0.72220       -1.02702
C         -3.69403       -0.08296        0.83059
C         -3.90892       -1.46343        1.43187
N         -3.78637       -0.10237       -0.61968
N         -2.73634       -2.34521        1.14982
H         -2.16086        4.30220        0.47194
H         -2.96086        2.84205        1.06453
H         -0.62624        2.87282        1.77726
H         -0.87805        1.53035        0.66053
H          0.41596        4.06128       -0.02849
H          1.01881        2.54129       -0.13881
H         -3.32662        3.37668       -1.35926
H         -1.76156        2.95680       -1.59285
C         -2.20548        3.20609        0.35781
C         -0.84369        2.62305        0.72682
N         -2.57491        2.79731       -0.99985
N          0.16940        3.09433       -0.21353
