38
2msa2dma_15.log	Energy: -1003301.5338307
S         -2.55211       -0.05028        0.20836
O         -1.23228       -0.15198        0.91403
O         -2.88119       -1.27376       -0.53746
O         -2.60977        1.20103       -0.60165
H         -1.05654        1.84914       -0.69254
C         -3.78631        0.14156        1.48231
H         -3.55248        1.03449        2.06240
H         -4.75624        0.24382        0.99511
H         -3.76601       -0.74640        2.11449
S          2.77220       -0.15222        0.26801
O          4.11845        0.37485        0.07930
O          2.66713       -1.64085        0.29633
O          1.75709        0.40223       -0.69591
H         -0.33175       -1.39540        0.02729
C          2.20686        0.38385        1.88328
H          2.82389       -0.10978        2.63480
H          2.33435        1.46530        1.95338
H          1.15652        0.10639        1.99802
N         -0.10866        2.28306       -0.58460
C         -0.08742        2.98571        0.71266
C          0.20061        3.13935       -1.74506
H          0.59441        1.49647       -0.55238
H         -0.83262        3.78303        0.70618
H         -0.32975        2.25798        1.48748
H          0.90605        3.40561        0.88150
H         -0.53763        3.94016       -1.81519
H          1.20141        3.55757       -1.62738
H          0.16911        2.52934       -2.64761
N          0.13483       -2.19170       -0.45474
C         -0.01193       -2.01592       -1.91617
C         -0.44766       -3.44497        0.06250
H          1.15007       -2.10663       -0.19300
H         -1.07467       -1.95297       -2.15399
H          0.50517       -1.09606       -2.18896
H          0.45182       -2.86382       -2.42315
H         -1.51961       -3.43864       -0.13987
H          0.03282       -4.29495       -0.42487
H         -0.27329       -3.49379        1.13769
