34
2msa1a1eda_133.log	Energy: -988704.9111728
S          1.02281        1.75303       -0.04266
O          2.42629        1.87348        0.37126
O          0.12231        1.44829        1.13019
O          0.80234        0.77878       -1.14453
H          0.62081       -0.84079       -0.69817
C          0.46561        3.32512       -0.66191
H          0.56744        4.06120        0.13561
H          1.08748        3.59066       -1.51703
H         -0.57671        3.20722       -0.96024
S         -2.62853       -0.35920       -0.20439
O         -2.20526       -1.62159       -0.81949
O         -2.64192        0.84183       -1.02191
O         -1.78766       -0.13692        1.10517
H         -1.03080        0.57821        1.02551
C         -4.24289       -0.61987        0.49400
H         -4.91285       -0.86095       -0.33196
H         -4.18732       -1.44877        1.19912
H         -4.55373        0.29905        0.98999
N          1.22680       -1.16050        2.36853
H          0.92993       -1.55763        3.25238
H          0.99535       -0.16711        2.36259
H          2.23712       -1.24431        2.27548
H          1.95199       -3.40910       -0.11585
H          1.40858       -3.04314       -1.77096
H          3.75243       -2.41184       -1.45641
H          2.75716       -1.00231       -1.82872
H          4.46726       -1.15485        0.23470
H          3.19920       -0.13206        0.21233
H         -0.30829       -2.18464       -0.44489
H          0.74692       -1.64617        0.77507
C          1.73773       -2.60522       -0.82489
C          2.98184       -1.74646       -1.05399
N          0.62427       -1.79552       -0.27241
N          3.45708       -1.11917        0.17952
