34
2msa1a1eda_244.log	Energy: -988698.8288302
S          1.68437       -1.46560       -0.24497
O          1.60812       -0.83517        1.11654
O          3.03392       -1.89145       -0.60244
O          1.03803       -0.57804       -1.27301
H          1.32419        0.91951       -1.40274
C          0.61680       -2.89361       -0.19401
H          0.97719       -3.56061        0.59021
H         -0.40641       -2.55790       -0.00419
H          0.68087       -3.38526       -1.16511
S         -2.61586        0.11696       -0.12958
O         -4.01559        0.53230       -0.08668
O         -2.36233       -1.22487        0.52397
O         -1.64655        1.11923        0.40563
H         -0.96482        0.40494        2.42380
C         -2.18394       -0.13938       -1.84305
H         -2.84754       -0.90731       -2.24197
H         -2.34442        0.80267       -2.37027
H         -1.13935       -0.45199       -1.89200
N         -0.74427       -0.59297        2.44336
H         -1.46334       -1.00828        1.75081
H         -0.81083       -0.97728        3.38006
H          0.20724       -0.73018        2.01978
H          1.10144        3.84322       -0.70056
H         -0.23156        2.63311       -0.67380
H          0.87965        3.08141        1.61509
H          0.70702        1.40458        1.07715
H          3.16385        2.76565        1.55097
H          2.86458        1.15937        1.28164
H          1.56195        2.27339       -2.42694
H          2.58590        1.98084       -1.11668
C          0.83567        2.79865       -0.51621
C          1.23287        2.34054        0.89162
N          1.61303        1.95550       -1.46297
N          2.67483        2.10535        0.96179
