40
2msa1dma1eda_398.log	Energy: -1038015.2084905
S          1.41094       -0.81954       -0.36324
O          1.57680        0.57932        0.14726
O          0.61989       -1.67002        0.55960
O          2.74318       -1.41911       -0.68357
H          3.99050       -0.36391       -0.16198
C          0.49820       -0.71451       -1.88146
H         -0.43523       -0.17930       -1.67394
H          1.10651       -0.17029       -2.60449
H          0.30332       -1.73157       -2.22608
S         -2.42951        1.87964       -0.09813
O         -3.57567        2.72041       -0.43546
O         -2.14790        0.76544       -1.03861
O         -2.48112        1.34928        1.31825
H         -2.13594       -0.09296        1.41974
C         -0.97464        2.92178       -0.12468
H         -0.89483        3.35697       -1.12204
H         -1.10576        3.70630        0.62170
H         -0.10412        2.30221        0.10006
N          4.23323        0.55073        0.29438
C          5.06269        1.39054       -0.58967
C          4.78780        0.31530        1.64198
H          3.25441        0.92151        0.36649
H          6.03187        0.91282       -0.74062
H          4.55270        1.49811       -1.54697
H          5.20153        2.37214       -0.13409
H          5.75159       -0.18836        1.55458
H          4.91263        1.26988        2.15521
H          4.09062       -0.31430        2.19505
H         -3.14526       -2.89011        1.60248
H         -3.93879       -1.40164        1.03440
H         -3.61722       -2.77381       -0.89809
H         -2.45675       -1.46181       -1.00557
H         -0.74072       -3.02751       -0.28923
H         -1.85397       -4.24254       -0.20727
H         -1.89397       -1.27339        2.60125
H         -1.00070       -1.36769        1.20796
C         -3.01912       -1.99126        0.99067
C         -2.69731       -2.37690       -0.45670
N         -1.94024       -1.15403        1.59234
N         -1.63618       -3.35306       -0.64205
