35
2msa1a1tma_26.log	Energy: -978627.3589059
S         -1.11745       -1.62866       -0.34517
O         -0.23624       -1.83715       -1.49979
O         -2.50404       -1.23141       -0.64923
O         -0.52545       -0.61931        0.63140
C         -1.17692       -3.15943        0.56922
H         -1.79975       -3.01320        1.45198
H         -1.60548       -3.91957       -0.08448
H         -0.15853       -3.42769        0.85238
S          2.78918        0.30729        0.24227
O          4.11141        0.49297        0.80097
O          1.98984        1.48392       -0.10842
O          1.96837       -0.58190        1.26560
H          0.98910       -0.60113        1.01394
C          2.88294       -0.73234       -1.19930
H          3.40032       -0.16452       -1.97380
H          3.45208       -1.62315       -0.93296
H          1.86753       -0.99763       -1.50687
N         -2.82711        0.42543        2.19600
H         -3.41096        0.39965        3.02482
H         -1.90831        0.06753        2.43959
H         -3.20731       -0.23066        1.51667
N         -1.47618        1.81245       -0.39263
C         -0.91115        2.87007        0.48412
H         -1.43357        2.82176        1.44005
H          0.15380        2.67348        0.61553
H         -1.06446        3.84172        0.00937
C         -0.75984        1.71775       -1.69341
H          0.29919        1.56101       -1.48995
H         -1.16818        0.87265       -2.24848
H         -0.91382        2.64927       -2.24230
C         -2.93837        1.97061       -0.59145
H         -3.30293        1.09502       -1.12905
H         -3.40838        2.01992        0.38966
H         -3.11359        2.88520       -1.16239
H         -1.30259        0.91030        0.09982
