37
2msa1ma1eda_451.log	Energy: -1013352.3215386
S          1.57111       -1.66861       -0.41684
O          2.81878       -1.05501       -0.87096
O          0.36611       -0.86844       -0.83691
O          1.51471       -1.93637        1.05257
H          0.86652       -0.71154        1.88848
C          1.40638       -3.25836       -1.20424
H          2.25485       -3.87184       -0.90041
H          0.46762       -3.71007       -0.88283
H          1.41377       -3.09950       -2.28280
S         -2.85318       -0.11775        0.26100
O         -2.16007        0.26872        1.50323
O         -4.24806       -0.48481        0.35794
O         -2.09366       -1.32514       -0.40701
H         -1.09384       -1.16098       -0.52983
C         -2.64296        1.21365       -0.89624
H         -3.19030        2.06726       -0.49356
H         -1.57578        1.45559       -0.99615
H         -3.07650        0.89653       -1.84505
N          0.52393        2.09963       -1.56594
H          1.27951        2.55421       -1.05582
C          0.32231        2.71669       -2.87257
H          1.19258        2.66434       -3.54326
H         -0.51846        2.23203       -3.38029
H          0.06007        3.77099       -2.74175
H          0.78334        1.11992       -1.66098
H          0.38597        1.38363        0.67779
H          0.43866        2.23204        2.22714
H          2.83037        1.38889        2.53915
H          2.72079        0.62199        0.94799
H          2.67612        3.50695        1.43694
H          3.64632        2.63454        0.44738
H          0.64177        0.12806        3.33898
H         -0.61010        0.03804        2.21350
C          0.84703        1.38641        1.66675
C          2.36469        1.46818        1.54238
N          0.41587        0.13304        2.34664
N          2.71059        2.69445        0.83092
