32
2msa1a1dma_117.log	Energy: -953955.8430838
S         -2.54583       -0.61569       -0.00992
O         -3.43510       -1.73786       -0.23123
O         -2.87638        0.69596       -0.55088
O         -1.11835       -1.06106       -0.57118
H         -0.48284       -0.28090       -0.67122
C         -2.24398       -0.43683        1.73479
H         -3.16557       -0.05580        2.17685
H         -2.00301       -1.41927        2.14111
H         -1.41348        0.25899        1.87336
S          1.48977        1.08846        0.40897
O          0.72312        0.82033        1.63244
O          0.76780        0.65980       -0.83629
O          2.85783        0.45741        0.42603
H          2.76644       -0.99924        0.03564
C          1.75522        2.83571        0.27015
H          0.77323        3.29514        0.11129
H          2.22847        3.17307        1.19248
H          2.40485        3.01166       -0.58761
N         -1.14334        3.24812       -1.16689
H         -1.71646        3.99061       -1.55406
H         -1.77527        2.52793       -0.82212
H         -0.63559        2.82128       -1.93618
N          2.62019       -2.04303       -0.23295
C          2.27233       -2.11575       -1.67379
C          1.57860       -2.60461        0.66496
H          3.50651       -2.51669       -0.06510
H          1.40953       -1.47102       -1.84050
H          3.11573       -1.74383       -2.25555
H          2.04418       -3.14739       -1.94626
H          0.63036       -2.11206        0.44476
H          1.48493       -3.67805        0.49185
H          1.86283       -2.40216        1.69755
