37
2msa1ma1eda_272.log	Energy: -1013359.2632868
S         -2.61242       -0.45102        0.14128
O         -3.79628       -0.23735        0.94596
O         -1.56293       -1.23200        1.01056
O         -1.96091        0.72601       -0.45587
C         -2.96709       -1.58046       -1.18743
H         -3.41412       -2.47696       -0.75827
H         -3.66552       -1.08245       -1.86056
H         -2.02680       -1.80942       -1.69169
S          1.74895       -1.44468       -0.26958
O          2.06418       -1.59542        1.16082
O          2.12466       -0.12995       -0.83968
O          0.30922       -1.78114       -0.56396
H         -0.73197       -1.47599        0.44041
C          2.68164       -2.67667       -1.15853
H          3.74015       -2.47934       -0.98755
H          2.40471       -3.65657       -0.76997
H          2.44035       -2.59441       -2.21827
N          0.72330        3.27751       -2.14780
H          0.13950        4.06086       -2.42240
C          0.36137        2.06551       -2.90454
H          0.47583        2.17925       -3.98896
H          0.98639        1.23515       -2.56359
H         -0.67788        1.80904       -2.68386
H          1.68354        3.54230       -2.34475
H          0.75399        3.29772        1.80028
H         -0.87960        2.58409        1.70911
H          0.37271        1.66993        3.66361
H          0.05499        0.39830        2.48825
H          2.59673        1.33295        3.31507
H          2.25471        0.09478        2.26462
H          0.55418        2.61250       -0.46051
H          1.36816        1.34118        0.25639
C          0.19112        2.37398        1.64777
C          0.63145        1.31557        2.65976
N          0.48306        1.87566        0.28379
N          2.05711        1.06333        2.50493
H         -0.27333        1.24411       -0.02584
