32
2msa2ma_27.log	Energy: -953970.1869714
S          1.88026       -1.08934       -0.02053
O          1.13349       -2.18160        0.61322
O          2.52210       -0.13602        0.92020
O          1.03895       -0.34041       -1.02843
C          3.20475       -1.81914       -0.96421
H          3.84979       -2.35746       -0.26953
H          2.76597       -2.50365       -1.69034
H          3.75553       -1.02203       -1.46353
S         -2.30870       -0.61293        0.08606
O         -3.69629       -0.41191       -0.27119
O         -1.68366        0.35860        0.99697
O         -1.48209       -0.66940       -1.25543
H         -0.47452       -0.59213       -1.11655
C         -2.08663       -2.22750        0.78993
H         -2.63204       -2.24233        1.73428
H         -2.50241       -2.95323        0.09084
H         -1.01589       -2.38673        0.94090
N          0.65316        1.87289        1.24140
H         -0.22763        1.33186        1.22145
H          1.42304        1.17144        1.28343
C          0.68958        2.83852        2.35260
H          1.64114        3.37052        2.33688
H         -0.12844        3.55107        2.24293
H          0.58554        2.31138        3.30103
H          0.73450        2.32847        0.28629
N          0.74815        2.60629       -1.44586
H          1.38512        3.25846       -1.89094
C         -0.62108        2.78976       -1.94460
H         -0.71750        2.64169       -3.02643
H         -1.28010        2.07317       -1.44910
H         -0.96804        3.79672       -1.69830
H          1.07205        1.66084       -1.65569
