34
2msa1a1eda_151.log	Energy: -988700.9845260
S          2.47370       -0.19651       -0.24225
O          2.42053       -1.08337        0.92071
O          2.63440        1.24568        0.06693
O          1.28406       -0.38253       -1.16961
C          3.88456       -0.65957       -1.22909
H          4.77882       -0.50254       -0.62551
H          3.77991       -1.71154       -1.49515
H          3.90428       -0.03252       -2.12033
S         -1.70490       -1.48103        0.06283
O         -2.85149       -1.06624       -0.74048
O         -1.21036       -0.49673        1.03655
O         -0.54419       -1.98476       -0.83809
H          0.27736       -1.31011       -0.93053
C         -2.13060       -2.96631        0.93728
H         -2.96185       -2.72461        1.60004
H         -2.42567       -3.71795        0.20546
H         -1.25674       -3.28874        1.50275
N          0.71533        1.31466        2.68192
H          1.68093        1.22420        2.37281
H          0.34644        0.36796        2.72779
H          0.72798        1.68285        3.62704
H         -0.94446        3.26651        1.20260
H         -0.72094        3.83604       -0.47697
H         -2.71542        1.72532        0.50314
H         -3.12957        3.31542       -0.14237
H         -2.79923        0.96199       -1.56833
H         -2.81517        2.46534       -2.26381
H         -0.29188        1.10420        0.54573
H         -0.21774        1.52845       -1.04865
C         -1.01982        2.99138        0.14914
C         -2.41773        2.48633       -0.22488
N         -0.07711        1.88357       -0.09544
N         -2.38203        1.88797       -1.55604
H          0.92676        2.07961        0.03892
