40
2msa1dma1eda_439.log	Energy: -1038010.8874728
S         -1.47475       -2.15733        0.07510
O         -2.52232       -1.48775       -0.70333
O         -1.41949       -1.81082        1.49317
O         -0.07693       -1.95389       -0.60108
H          0.18361       -0.94023       -0.55458
C         -1.65123       -3.91222       -0.11465
H         -2.60698       -4.18379        0.33419
H         -1.64080       -4.14560       -1.17883
H         -0.82649       -4.39799        0.40605
S          0.91359        1.19856        0.76819
O          1.91474        2.20320        0.42628
O          0.37163        0.48639       -0.46290
O         -0.24101        1.71784        1.56259
H         -1.66667        1.24766        0.97945
C          1.67787       -0.07159        1.75037
H          2.48364       -0.52377        1.15867
H          2.07443        0.41093        2.64467
H          0.91095       -0.80148        2.01614
N          4.09687       -0.88988       -0.39710
C          4.82327        0.35966       -0.20667
C          3.33785       -0.91280       -1.64036
H          4.74377       -1.67044       -0.37694
H          4.10401        1.17990       -0.11692
H          5.39868        0.31131        0.72250
H          5.51399        0.59553       -1.03479
H          2.56826       -0.13583       -1.60483
H          3.95838       -0.73670       -2.53644
H          2.83380       -1.87747       -1.74747
H         -4.05101        2.28356       -0.48246
H         -3.18329        3.12126        0.83870
H         -2.48538        3.85274       -1.48558
H         -1.15125        3.26449       -0.49095
H         -1.76224        2.31051       -2.96122
H         -0.92662        1.44986       -1.83162
H         -3.25434        0.71041        1.18297
H         -2.51313        0.44800       -0.26175
C         -3.07938        2.43831       -0.00767
C         -2.05993        2.95754       -1.02275
N         -2.61302        1.12671        0.51120
N         -1.80251        1.93094       -2.02540
