40
2msa1dma1eda_91.log	Energy: -1038031.4970675
S         -2.63685        0.31217        0.56934
O         -3.82050        1.16378        0.62618
O         -1.48821        0.91571       -0.20116
O         -2.86769       -1.07196        0.05873
H         -1.52003       -1.47242       -0.78197
C         -2.02876        0.10856        2.23881
H         -2.78970       -0.43078        2.80411
H         -1.09293       -0.45438        2.20367
H         -1.88207        1.09853        2.67587
S          2.00331       -0.88664        0.86825
O          1.84080       -1.02342       -0.61471
O          0.85840       -1.44690        1.60276
O          2.34984        0.51435        1.24659
H          1.26141        1.73900        0.91692
C          3.44143       -1.85099        1.29674
H          3.24490       -2.89054        1.03406
H          4.29546       -1.46411        0.74101
H          3.60170       -1.75024        2.37030
N         -0.72059       -1.73506       -1.41806
C         -0.90036       -1.02307       -2.70038
C         -0.66373       -3.20359       -1.52914
H          0.16276       -1.40336       -0.98328
H         -1.86065       -1.30679       -3.13382
H         -0.88377        0.04778       -2.49302
H         -0.08705       -1.29197       -3.37783
H         -1.59953       -3.56950       -1.95472
H          0.17496       -3.48843       -2.16703
H         -0.52607       -3.61963       -0.53095
H          2.86611        2.43716       -0.80888
H          2.25831        3.48752       -2.09227
H          1.42001        4.21257        0.06473
H          0.07532        3.68423       -0.98204
H          0.16719        2.89577        1.43920
H         -0.31256        1.79259        0.28155
H          1.82390        1.48480       -3.00908
H          1.54518        0.71198       -1.60018
C          1.96569        2.70989       -1.37969
C          0.95970        3.35438       -0.43281
N          1.38511        1.58579       -2.10182
N          0.50245        2.40043        0.61618
