35
2msa1ma1dma_35.log	Energy: -978631.3707559
S          1.22063       -1.59613       -0.19822
O          0.43338       -1.63332        1.05023
O          2.57312       -1.03444       -0.06323
O          0.45499       -0.89146       -1.30340
C          1.38965       -3.27868       -0.76362
H          1.93192       -3.26791       -1.70899
H          1.94601       -3.82958       -0.00483
H          0.39323       -3.70174       -0.89339
S         -2.59702        0.20302        0.04557
O         -3.91964        0.69687       -0.27919
O         -1.54581        1.16275        0.39187
O         -2.10762       -0.67272       -1.17830
H         -1.09952       -0.78185       -1.18972
C         -2.71783       -0.98360        1.36427
H         -3.05070       -0.44583        2.25300
H         -3.45378       -1.73264        1.07221
H         -1.72883       -1.42359        1.50999
N          1.04950        1.33164        1.82128
H          0.40936        1.93458        2.32857
C          2.33594        1.19586        2.51287
H          2.23994        0.80686        3.53366
H          2.95972        0.50684        1.93895
H          2.83514        2.16820        2.55829
H          0.59554        0.41914        1.75312
N          1.19507        1.80590       -0.87801
C          2.62235        1.91640       -1.24097
C          0.35613        2.92346       -1.35127
H          0.82981        0.89780       -1.21979
H          3.04159        2.80668       -0.76767
H          3.12834        1.01832       -0.88495
H          2.72184        1.99782       -2.32536
H          0.73414        3.85469       -0.92413
H          0.39900        2.98000       -2.44092
H         -0.66626        2.74836       -1.01830
H          1.11908        1.70897        0.19825
