42
2msa2eda_64.log	Energy: -1072769.0756589
S         -3.07937       -0.59737       -0.28154
O         -3.17016        0.64689       -1.08893
O         -2.15839       -0.40544        0.89087
O         -2.73192       -1.80917       -1.04715
C         -4.70437       -0.85299        0.40796
H         -4.96482        0.02015        1.00627
H         -5.40456       -0.97515       -0.41884
H         -4.67785       -1.75151        1.02471
S          2.52705        0.52165       -0.19769
O          2.84605       -0.42956        0.88489
O          2.49657        1.94333        0.19370
O          1.26022        0.12463       -0.91967
C          3.80878        0.34536       -1.42840
H          3.60207        1.03889       -2.24359
H          4.76419        0.57779       -0.95710
H          3.79073       -0.68422       -1.78819
H          0.71271        3.13662       -1.04326
H         -0.93713        3.66072       -1.46459
H          0.22831        5.02185        0.36862
H         -1.35690        4.38152        0.83023
H          1.16995        3.03436        1.52513
H          0.12931        3.79177        2.57581
H         -0.10348        1.15682       -0.67297
H         -0.80702        1.77696        0.67798
C         -0.31118        3.23543       -0.67891
C         -0.32667        4.09822        0.58553
N         -0.79203        1.86861       -0.34915
N          0.20234        3.30980        1.68950
H         -1.73167        1.61019       -0.71195
H          1.18616       -2.04812        1.81566
H         -0.11548       -3.26206        1.87993
H          2.08327       -4.31092        1.50369
H          1.00067       -4.60504        0.13833
H          2.99675       -2.44533        0.13234
H          3.11926       -3.87162       -0.70212
H         -0.80412       -1.39517        0.58374
H          0.56970       -1.43726       -0.36794
C          0.63000       -2.78929        1.23683
C          1.57780       -3.82665        0.65315
N         -0.08199       -2.03650        0.17880
N          2.47243       -3.20005       -0.30754
H         -0.60317       -2.62853       -0.47207
