32
2msa2ma_211.log	Energy: -953957.1963896
S         -2.14495       -0.85040        0.06101
O         -1.44844       -1.05256       -1.23643
O         -2.83911        0.46132        0.14886
O         -1.24105       -1.08167        1.22297
C         -3.41430       -2.10181        0.15443
H         -2.93678       -3.07919        0.08292
H         -3.92884       -1.99206        1.10907
H         -4.10419       -1.94862       -0.67573
S          2.59638       -0.56068        0.09275
O          1.94470        0.44170        0.91234
O          3.92529       -1.03917        0.43198
O          2.70327        0.09431       -1.40143
H          3.56981       -0.13525       -1.76572
C          1.49750       -1.91909       -0.19125
H          1.25148       -2.33607        0.78616
H          0.58182       -1.55434       -0.66621
H          2.02334       -2.64462       -0.81222
N         -0.58998        1.66206        1.26577
H         -0.40074        0.68990        1.55214
H         -0.26027        1.72005        0.23994
C          0.03799        2.66537        2.13886
H         -0.17524        3.66318        1.75347
H         -0.35258        2.57435        3.15305
H          1.11388        2.49374        2.14073
H         -1.61436        1.70756        1.21204
N         -0.10891        1.63973       -1.44244
H          0.82177        1.76472       -1.82731
C         -1.09130        2.52417       -2.07676
H         -1.16019        2.39241       -3.16333
H         -2.07185        2.30863       -1.64410
H         -0.83962        3.56914       -1.87091
H         -0.38471        0.66793       -1.60546
