34
2msa1a1eda_87.log	Energy: -988706.8142584
S          2.47152       -0.55628       -0.27551
O          3.50323       -1.58149       -0.12889
O          2.89674        0.84781       -0.35492
O          1.41585       -0.68664        0.83576
H          0.69449        0.71945        1.21393
C          1.55577       -0.91866       -1.76822
H          2.21092       -0.71119       -2.61520
H          1.28007       -1.97436       -1.75859
H          0.65402       -0.30301       -1.79513
S         -2.22057       -0.61620       -0.18675
O         -1.57622        0.23102       -1.21103
O         -1.90509       -0.20031        1.20590
O         -1.96769       -2.07752       -0.38992
H         -0.82155       -2.63975        0.57998
C         -3.98139       -0.41435       -0.39683
H         -4.21976        0.63737       -0.23412
H         -4.23799       -0.71506       -1.41282
H         -4.49228       -1.04197        0.33331
N         -0.01208       -2.82268        1.24555
H         -0.36531       -2.82286        2.19845
H          0.66718       -1.99855        1.11127
H          0.45088       -3.70472        1.04558
H          0.51954        3.68142        1.55865
H          1.89925        2.70070        0.94764
H          0.71706        3.86728       -0.91026
H          0.62029        2.11899       -1.06156
H         -1.55232        3.90166       -0.79196
H         -1.58982        2.24943       -0.95380
H          0.28908        1.60214        2.56894
H         -0.77898        1.50189        1.30861
C          0.81502        2.82425        0.94842
C          0.27087        2.97026       -0.46897
N          0.21956        1.60307        1.55430
N         -1.18692        3.02803       -0.43963
