44
2msa2tma_03.log	Energy: -1052612.5590029
S          1.38100        1.79899       -0.46783
O          0.09061        2.16493       -1.09196
O          2.10930        0.71448       -1.17451
O          1.27593        1.52236        0.99306
H          1.51588       -0.65659        0.59926
C          2.41378        3.25565       -0.61191
H          2.54495        3.47644       -1.67165
H          1.91382        4.08298       -0.10717
H          3.37606        3.04761       -0.14240
S         -1.13059       -1.66933       -0.83806
O         -0.84918       -3.10771       -0.94206
O         -0.40079       -1.00035        0.27680
O         -2.58931       -1.32575       -0.73731
H         -2.62275       -0.05197        0.25521
C         -0.56185       -0.89830       -2.34275
H         -1.12765       -1.32200       -3.17309
H         -0.70627        0.17966       -2.25225
H          0.50470       -1.09726       -2.44968
N          2.22601       -1.33680        0.93295
C          1.64782       -1.98808        2.13244
H          1.45655       -1.21845        2.88081
H          0.70950       -2.45718        1.84120
H          2.35958       -2.72334        2.51495
C          2.42798       -2.30537       -0.17524
H          1.48291       -2.81515       -0.37209
H          2.73820       -1.73983       -1.05388
H          3.19855       -3.02106        0.12069
C          3.47025       -0.59617        1.25081
H          3.81659       -0.11699        0.33642
H          3.23364        0.17124        1.98643
H          4.21002       -1.30253        1.63516
N         -2.88608        0.82210        0.80066
C         -2.91324        1.92638       -0.19134
H         -1.90010        2.06738       -0.57754
H         -3.59345        1.64719       -0.99728
H         -3.26385        2.83763        0.30040
C         -4.22811        0.54104        1.35427
H         -4.89749        0.27346        0.53607
H         -4.15586       -0.29837        2.04650
H         -4.60107        1.42643        1.87475
C         -1.88038        1.06974        1.86404
H         -1.83530        0.18949        2.50573
H         -0.90102        1.23007        1.40912
H         -2.19222        1.94627        2.43932
