32
2msa1a1dma_123.log	Energy: -953956.2393435
S          2.13466       -0.38074       -0.13714
O          1.34277       -0.44639       -1.35451
O          2.34485        0.93252        0.48159
O          3.55245       -1.03329       -0.40815
H          4.30662       -0.38853       -0.13196
C          1.43429       -1.48350        1.06167
H          0.41739       -1.12801        1.26396
H          1.41693       -2.48272        0.62552
H          2.05547       -1.45892        1.95693
S         -2.50552       -0.93753        0.11769
O         -3.65595       -1.55251        0.77394
O         -1.51990       -0.28980        1.02532
O         -2.89537        0.03832       -0.97514
H         -2.30850        1.34577       -0.75937
C         -1.62607       -2.23063       -0.74807
H         -1.33801       -2.98678       -0.01608
H         -2.30405       -2.66190       -1.48502
H         -0.74873       -1.79493       -1.22973
N          5.33713        0.75738        0.32790
H          5.85872        1.17339       -0.43679
H          5.98983        0.53052        1.07079
H          4.67289        1.44664        0.67514
N         -1.91012        2.35150       -0.53511
C         -0.43133        2.28401       -0.47347
C         -2.53355        2.79302        0.73268
H         -2.20057        2.95985       -1.29842
H         -0.16373        1.63919        0.36110
H         -0.05232        1.83338       -1.39059
H         -0.01495        3.28361       -0.33220
H         -2.28409        2.04922        1.49086
H         -2.15358        3.77726        1.01519
H         -3.61550        2.82494        0.60115
