32
2msa2ma_05.log	Energy: -953981.3411969
S          2.77380        0.00422       -0.00954
O          3.03324        1.31310       -0.62370
O          2.59808       -1.12228       -0.96315
O          1.61230        0.06178        0.95300
H          0.17623       -1.50457        0.59656
C          4.19753       -0.40903        0.98357
H          5.05935       -0.46760        0.31824
H          4.33778        0.37727        1.72547
H          4.01890       -1.36956        1.46679
S         -2.68448        0.08511        0.19108
O         -2.45234       -1.05180        1.09945
O         -1.87916       -0.03831       -1.06812
O         -2.49273        1.42187        0.82139
H         -0.93448        2.01021        0.68568
C         -4.39679        0.03746       -0.30400
H         -4.58498       -0.92339       -0.78329
H         -5.00734        0.14680        0.59245
H         -4.57805        0.85765       -0.99852
N          0.05387        2.25511        0.42242
H          0.38184        3.03100        0.99239
C          0.12540        2.57031       -1.02775
H          1.17250        2.64419       -1.31917
H         -0.36207        1.75192       -1.55798
H         -0.41153        3.49985       -1.21792
H          0.65673        1.42414        0.64672
N          0.02179       -1.88848       -0.34137
H         -0.65685       -1.22629       -0.78178
C         -0.52120       -3.25974       -0.30247
H         -0.67378       -3.61044       -1.32305
H          0.18322       -3.91611        0.20859
H         -1.47069       -3.23062        0.23167
H          0.94960       -1.79893       -0.80192
