37
2msa1ma1eda_226.log	Energy: -1013361.8340488
S          0.99424        1.99698        0.17404
O          1.75517        3.11778       -0.36047
O          1.76091        1.01834        0.97997
O          0.23410        1.24482       -0.92232
C         -0.28677        2.63796        1.23952
H         -0.90132        1.80633        1.58928
H          0.20518        3.14063        2.07276
H         -0.88382        3.34865        0.66670
S         -2.60169       -0.36113       -0.29798
O         -2.25700       -0.22977        1.11391
O         -2.07308       -1.53620       -0.99842
O         -2.23612        0.94976       -1.07885
H         -1.21191        1.14236       -1.02190
C         -4.36537       -0.33922       -0.49282
H         -4.59256       -0.36228       -1.55814
H         -4.74890       -1.23024        0.00494
H         -4.75294        0.56471       -0.02420
N          1.17846       -1.75692        1.85836
H          2.07293       -2.19346        2.05923
C          0.10161       -2.27801        2.70357
H          0.28313       -2.13749        3.77652
H         -0.82901       -1.77167        2.43691
H         -0.02744       -3.34718        2.51373
H          1.30251       -0.75279        1.98881
H          2.13632       -3.02107       -1.36991
H          1.58652       -2.00721       -2.72799
H          3.93772       -1.56288       -2.16634
H          2.94101       -0.12411       -1.94451
H          4.61230       -0.90101       -0.11443
H          3.15856       -0.31628        0.34010
H         -0.10214       -1.89562       -1.07954
H          0.97534       -1.67492        0.20816
C          1.91888       -1.99779       -1.68614
C          3.15872       -1.12292       -1.53603
N          0.80967       -1.49132       -0.84506
N          3.61673       -1.08503       -0.15029
H          0.68950       -0.46323       -0.94722
