31
2msa1tma_36.log	Energy: -943107.1304433
S          2.50851        0.03074       -0.11439
O          2.25955        1.44990       -0.30205
O          2.04828       -0.89870       -1.13919
O          1.94218       -0.43736        1.30161
H          1.02382       -0.79859        1.20378
C          4.23978       -0.21952        0.18964
H          4.76501        0.10972       -0.70749
H          4.52892        0.38638        1.04812
H          4.40981       -1.27931        0.37495
S         -1.45862       -1.75762       -0.01417
O         -1.58569       -3.16425       -0.34706
O         -0.55924       -1.36248        1.06704
O         -2.93593       -1.23307        0.41450
H         -3.49998       -2.01105        0.53366
C         -1.14974       -0.74834       -1.42621
H         -0.12359       -0.95818       -1.73731
H         -1.87312       -1.01789       -2.19543
H         -1.25175        0.29847       -1.09283
N         -1.49411        2.13551       -0.05460
C         -0.83048        3.16204       -0.84409
H          0.23640        2.93595       -0.91514
H         -1.25228        3.18086       -1.85421
H         -0.95044        4.16948       -0.40276
C         -2.92836        2.35673        0.01357
H         -3.35094        2.37727       -0.99621
H         -3.40065        1.53897        0.56550
H         -3.18341        3.31079        0.51241
C         -0.91381        2.04293        1.27793
H         -1.36416        1.20697        1.82025
H          0.16132        1.86709        1.19628
H         -1.07184        2.96919        1.86177
