40
2msa1dma1eda_34.log	Energy: -1038037.3196149
S         -2.99350        0.40875        0.19428
O         -3.53262       -0.56330       -0.77208
O         -2.64300        1.73206       -0.39836
O         -1.83420       -0.13617        0.96940
C         -4.27634        0.72832        1.39179
H         -4.53962       -0.21693        1.86657
H         -3.89423        1.43653        2.12702
H         -5.13412        1.14573        0.86402
S          2.53855       -0.98175        0.32643
O          3.33994       -0.15283       -0.59219
O          2.10030       -2.28347       -0.25041
O          1.37707       -0.24790        0.91559
C          3.59589       -1.39463        1.70431
H          3.92789       -0.46737        2.17195
H          3.02181       -1.99754        2.40779
H          4.44734       -1.95548        1.31826
N         -0.62297       -2.09728       -0.50491
C         -1.53200       -3.24646       -0.31993
C         -0.63247       -1.55393       -1.88176
H         -0.93118       -1.33835        0.14828
H         -1.24173       -4.05077       -0.99794
H         -1.45740       -3.58764        0.71274
H         -2.54981       -2.91245       -0.52889
H         -0.34775       -2.34289       -2.57926
H         -1.63184       -1.17512       -2.10170
H          0.10795       -0.75514       -1.93760
H          0.36628       -2.33148       -0.27173
H          0.31289        3.95295       -0.19576
H          0.52295        3.11162        1.35918
H          2.72302        3.92762        0.26411
H          2.67458        2.21036        0.68212
H          2.95160        3.28557       -1.91212
H          2.98316        1.70123       -1.41596
H          0.41503        1.02245        0.21803
H         -0.94405        1.91158       -0.31047
C          0.74565        3.07555        0.29142
C          2.25214        2.97045        0.01821
N          0.10167        1.87795       -0.29022
N          2.46990        2.57965       -1.37274
H          0.47904        1.80835       -1.24479
