32
2msa1a1dma_44.log	Energy: -953968.6632592
S          1.62035       -1.68585       -0.04737
O          2.99121       -1.99777       -0.39317
O          1.09080       -0.66379       -1.13064
O          1.35298       -1.14748        1.29422
H          0.59598        0.34526        1.92699
C          0.58017       -3.10683       -0.27044
H          0.73018       -3.47486       -1.28538
H          0.89897       -3.84946        0.46185
H         -0.45583       -2.80108       -0.09770
S         -2.30116       -0.10617        0.01876
O         -2.42394        0.65132        1.29161
O         -2.26363       -1.56565        0.15888
O         -1.13255        0.42119       -0.77952
H          0.13286       -0.31643       -0.95260
C         -3.74135        0.31101       -0.94468
H         -4.61822       -0.03402       -0.39633
H         -3.76959        1.39258       -1.07603
H         -3.66407       -0.19655       -1.90622
N          0.16916        1.28626        1.95891
H          0.34178        1.72650        2.85722
H         -0.85628        1.16627        1.79033
H          0.62564        1.82773        1.14612
N          1.43553        2.37500       -0.24132
C          2.75339        2.95499        0.00988
C          0.56402        3.24639       -1.03036
H          1.55355        1.49418       -0.74019
H          2.64396        3.85714        0.62060
H          3.37162        2.23851        0.55677
H          3.27648        3.23253       -0.91626
H          0.35622        4.16053       -0.46433
H          1.01695        3.53435       -1.98982
H         -0.37641        2.72432       -1.21799
