38
2msa1ma1tma_09.log	Energy: -1003296.0369858
S          2.35647        0.03748       -0.44833
O          2.95040       -1.29628       -0.14730
O          3.29443        1.16557       -0.45478
O          1.17432        0.28150        0.44926
C          1.67073       -0.10057       -2.09361
H          2.48803       -0.32951       -2.77840
H          0.91675       -0.88896       -2.09278
H          1.20167        0.84860       -2.35392
S         -1.93812       -0.76091       -0.53801
O         -1.55708        0.43612       -1.32157
O         -1.90341       -0.51027        0.92756
O         -1.18304       -1.98914       -0.92138
C         -3.63830       -1.11467       -0.95969
H         -4.24603       -0.24974       -0.69104
H         -3.69139       -1.30090       -2.03258
H         -3.95595       -1.99512       -0.40083
N          0.69345       -2.33258        1.01829
H          1.64899       -2.26858        0.60476
H          0.54804       -1.38063        1.37937
C          0.51527       -3.39091        2.02357
H         -0.49025       -3.32052        2.43873
H          0.64806       -4.36353        1.54981
H          1.25352       -3.27009        2.81675
H          0.00024       -2.38679        0.23553
N         -0.58112        2.32709        0.65357
C          0.41925        3.21548        0.00863
H          1.41192        2.78447        0.14846
H          0.19242        3.27055       -1.05665
H          0.35249        4.20819        0.45933
C         -1.97120        2.78486        0.42024
H         -2.14806        2.83019       -0.65266
H         -2.64615        2.05248        0.86259
H         -2.10127        3.76585        0.88328
C         -0.30674        2.14446        2.10098
H         -1.00353        1.39571        2.47825
H          0.71455        1.78326        2.20604
H         -0.44546        3.10186        2.60862
H         -0.46755        1.39456        0.21084
