41
2msa1dma1tma_71.log	Energy: -1027946.4424104
S          2.25661       -0.70053       -0.67215
O          1.50734       -1.29018        0.47207
O          3.64994       -1.13014       -0.77881
O          2.09798        0.80287       -0.66697
H          1.59825        1.36803        0.65253
C          1.41121       -1.21664       -2.15841
H          1.50996       -2.30018       -2.24366
H          0.36163       -0.91717       -2.09639
H          1.90360       -0.73462       -3.00381
S         -1.77174        1.06767       -0.88119
O         -3.06475        1.74030       -0.72686
O         -1.80560       -0.20534       -1.64534
O         -1.07401        0.84022        0.44072
H         -1.04829       -0.91695        0.57850
C         -0.69864        2.16692       -1.79466
H         -1.10371        2.26008       -2.80287
H         -0.70604        3.14065       -1.30219
H          0.30703        1.74172       -1.80213
N          1.54821        1.88256        1.60724
C          1.01805        0.98019        2.65385
C          0.79555        3.14860        1.46583
H          2.52770        2.08683        1.80500
H         -0.03738        0.82316        2.43640
H          1.54823        0.03031        2.58139
H          1.15035        1.44050        3.63566
H         -0.23600        2.88836        1.22757
H          0.84530        3.71480        2.39841
H          1.23482        3.72544        0.65125
N         -1.44066       -1.84883        0.86788
C         -2.91152       -1.65731        0.95352
H         -3.11636       -0.82410        1.62578
H         -3.28271       -1.41031       -0.04077
H         -3.36704       -2.57756        1.32633
C         -1.08583       -2.85703       -0.16283
H         -1.44452       -2.48409       -1.12193
H         -0.00105       -2.95439       -0.17473
H         -1.56464       -3.80481        0.09571
C         -0.85102       -2.18143        2.18522
H          0.23110       -2.22935        2.06823
H         -1.12279       -1.39885        2.89513
H         -1.25205       -3.13945        2.52453
