43
2msa1eda1tma_37.log	Energy: -1062690.2232363
S          2.71501       -0.02649        0.23047
O          2.92930       -1.11998        1.19158
O          2.51145        1.31269        0.83800
O          1.60709       -0.34382       -0.73889
C          4.19452        0.10250       -0.76022
H          5.01997        0.36344       -0.09743
H          4.37418       -0.86260       -1.23446
H          4.04316        0.87618       -1.51345
S         -3.11091       -0.05037       -0.09613
O         -3.16317       -1.38849       -0.71350
O         -2.85559        1.06808       -1.02353
O         -2.14399       -0.01158        1.06336
C         -4.71919        0.22607        0.63314
H         -5.45882        0.20047       -0.16755
H         -4.90982       -0.56638        1.35714
H         -4.71564        1.20109        1.12084
H         -1.40051        3.18983       -0.55471
H         -1.21651        3.31949        1.20626
H          0.09870        5.06103       -0.11543
H          1.04863        4.13110        1.04562
H          1.80434        4.40500       -1.45784
H          2.05285        2.98356       -0.67521
H         -0.96995        1.05469        0.64779
H          0.04520        1.40271       -0.63304
C         -0.68992        3.12019        0.26977
C          0.49645        4.06436        0.09601
N         -0.22146        1.71483        0.30468
N          1.33875        3.62465       -1.01281
H          0.63862        1.60359        0.86298
N          0.44004       -2.72339       -0.17768
C         -0.56536       -3.07997       -1.21241
H         -1.41071       -2.38866       -1.15432
H         -0.08705       -3.02380       -2.19129
H         -0.91321       -4.09861       -1.02464
C          1.58772       -3.66233       -0.17240
H          2.01682       -3.69811       -1.17490
H          2.33058       -3.29068        0.53395
H          1.23204       -4.65459        0.11419
C         -0.16824       -2.59643        1.17440
H          0.61835       -2.29475        1.86752
H         -0.95321       -1.83688        1.14055
H         -0.58677       -3.56383        1.46167
H          0.83533       -1.77753       -0.41897
