30
2msa1eda_113.log	Energy: -953194.5193667
S          0.54114        1.13815        0.00513
O          0.06139        1.03494        1.37935
O          0.24208       -0.08007       -0.83467
O          2.01736        1.42738       -0.11385
H          2.67173        0.24377       -0.89135
C         -0.29134        2.49865       -0.77913
H         -1.35807        2.26585       -0.77483
H         -0.07603        3.39671       -0.19945
H          0.08540        2.59401       -1.79744
S         -3.19773       -0.54769       -0.01154
O         -4.40327       -1.31192       -0.25491
O         -3.04359        0.77898       -0.59984
O         -1.97542       -1.45955       -0.47585
H         -1.15636       -0.90356       -0.61286
C         -2.93309       -0.40827        1.74335
H         -3.74232        0.20729        2.13844
H         -2.96750       -1.40943        2.17255
H         -1.96385        0.06806        1.90658
H          5.24590       -0.53856       -0.33878
H          5.18143       -1.90783        0.76925
H          3.74747       -2.56470       -0.99449
H          2.63681       -1.98274        0.27243
H          3.42267       -0.57680       -2.19719
H          1.88264       -0.95033       -1.63739
H          4.85013        0.06309        2.05018
H          3.50989        0.49220        1.19095
C          4.58803       -1.08138        0.36633
C          3.43240       -1.69325       -0.41680
N          4.09384       -0.29052        1.47780
N          2.84490       -0.70332       -1.36898
