31
2msa1tma_39.log	Energy: -943105.5563170
S         -0.89202       -2.02900       -0.05400
O         -0.74076       -3.46821       -0.12945
O         -0.20786       -1.19450       -1.04284
O         -0.43674       -1.53351        1.39983
H          0.34659       -0.94128        1.32400
C         -2.61212       -1.60784       -0.01401
H         -3.04331       -1.97113       -0.94810
H         -3.06119       -2.12122        0.83671
H         -2.69506       -0.51565        0.07084
S          2.60546        0.58373        0.13938
O          1.76869        0.07824        1.21984
O          3.83063        1.28552        0.46937
O          1.69304        1.58934       -0.74491
H          2.11272        2.46214       -0.73189
C          2.89961       -0.71338       -1.02961
H          3.46072       -1.48547       -0.50069
H          1.92844       -1.09055       -1.35793
H          3.48367       -0.30183       -1.85218
N         -2.41181        1.66518       -0.00017
C         -1.86601        1.84250       -1.33657
H         -0.98447        1.20899       -1.45917
H         -2.61072        1.54526       -2.08153
H         -1.58189        2.89407       -1.53486
C         -3.62937        2.43373        0.18485
H         -4.37646        2.13018       -0.55480
H         -4.03983        2.24863        1.18207
H         -3.46160        3.52261        0.07771
C         -1.42334        1.98400        1.01638
H         -1.82310        1.75805        2.00930
H         -0.52453        1.38419        0.85967
H         -1.13094        3.05195        0.99502
