43
2msa1eda1tma_75.log	Energy: -1062685.2103894
S         -0.15811        2.11698       -0.50745
O         -1.60109        1.81730       -0.56404
O          0.62831        1.65705       -1.66128
O          0.42261        1.60925        0.80139
C          0.01393        3.88952       -0.41876
H         -0.53334        4.24502        0.45418
H          1.07520        4.12362       -0.33314
H         -0.40129        4.31033       -1.33480
S          2.94171       -0.83435        0.41028
O          1.70524       -1.60920        0.58808
O          4.18111       -1.39313        0.90422
O          2.76903        0.58582        1.08007
H          1.85564        0.99503        0.91728
C          3.08937       -0.45845       -1.32072
H          2.21379        0.12131       -1.62546
H          4.00549        0.11612       -1.45753
H          3.14913       -1.40918       -1.85215
H         -2.32684       -1.95844        2.23806
H         -1.25214       -1.02528        3.30956
H         -3.54018       -0.07348        3.22085
H         -2.32085        1.07295        2.65264
H         -4.46365        0.65834        1.27195
H         -3.04598        0.74768        0.46565
H         -0.04045       -1.40369        1.31219
H         -1.32483       -1.03506        0.29537
C         -1.82342       -0.99869        2.37772
C         -2.84120        0.13423        2.40506
N         -0.87964       -0.81556        1.25287
N         -3.57092        0.19662        1.14501
H         -0.50519        0.15220        1.20794
N         -1.73985       -1.66589       -1.23447
C         -0.51213       -1.59870       -2.02877
H         -0.24907       -0.55144       -2.19850
H          0.30518       -2.07607       -1.48035
H         -0.63400       -2.10202       -3.00238
C         -2.10832       -3.04928       -0.95150
H         -1.28999       -3.54867       -0.42229
H         -3.00223       -3.06591       -0.32085
H         -2.31863       -3.61679       -1.87324
C         -2.83089       -0.95680       -1.90154
H         -3.72190       -0.99384       -1.27039
H         -2.54620        0.08868       -2.03806
H         -3.05825       -1.40728       -2.88218
