44
2msa2tma_76.log	Energy: -1052592.6888528
S          1.09468        0.05019        0.36767
O          0.30886       -0.49985       -0.76933
O          1.82871        1.28112        0.00336
O          2.04790       -0.98521        0.91652
H          3.39811       -0.75368        0.31487
C         -0.04168        0.42687        1.67246
H         -0.74583        1.16659        1.26725
H         -0.55989       -0.49228        1.95010
H          0.53223        0.83193        2.50650
S         -2.99623       -1.57878        0.06574
O         -3.82813       -0.38451        0.07014
O         -2.27754       -1.92784        1.28545
O         -1.99328       -1.54649       -1.15723
H         -1.09987       -1.12748       -0.92173
C         -3.99582       -2.96139       -0.43791
H         -4.77215       -3.07866        0.31890
H         -4.43724       -2.73550       -1.40827
H         -3.36373       -3.84729       -0.48691
N         -1.70387        2.64865       -0.06774
C         -2.99562        3.06333        0.44799
H         -3.67857        2.20986        0.44612
H         -2.88577        3.41778        1.47830
H         -3.44524        3.88082       -0.14998
C         -0.72657        3.71979       -0.01586
H         -0.62351        4.07894        1.01380
H          0.24599        3.34087       -0.34327
H         -1.01026        4.58113       -0.65304
C         -1.81905        2.10303       -1.41032
H         -0.85252        1.70433       -1.73058
H         -2.54489        1.28647       -1.41041
H         -2.14974        2.86747       -2.14132
N          4.36275       -0.56856       -0.15598
C          4.90910        0.66141        0.46418
H          4.16688        1.45127        0.34099
H          5.06857        0.47644        1.52716
H          5.85461        0.92404       -0.01735
C          5.20907       -1.75336        0.09399
H          5.32026       -1.88958        1.17020
H          4.72047       -2.63115       -0.33014
H          6.18977       -1.61207       -0.36776
C          4.08683       -0.37149       -1.60035
H          3.60411       -1.26845       -1.98998
H          3.40476        0.47358       -1.70116
H          5.02632       -0.18539       -2.12708
