38
2msa2dma_169.log	Energy: -1003277.9862115
S          0.79922       -1.40880       -0.02338
O         -0.42869       -2.26469       -0.14610
O          1.02262       -0.88351        1.32893
O          0.78843       -0.32445       -1.05879
H          0.28841        1.07734       -0.45077
C          2.15886       -2.47363       -0.43933
H          2.18025       -3.28269        0.29135
H          1.99374       -2.86409       -1.44356
H          3.07526       -1.87516       -0.39044
S         -3.06408        0.01508        0.03628
O         -2.72206        1.18927       -0.78890
O         -2.59433        0.06728        1.41504
O         -2.63296       -1.29583       -0.67224
H         -1.66388       -1.66806       -0.41482
C         -4.82971       -0.16512       -0.00642
H         -5.13839       -0.27485       -1.04567
H         -5.09507       -1.04611        0.57736
H         -5.25617        0.73705        0.43257
N         -0.12076        1.99633       -0.11787
C          0.47439        3.09111       -0.90653
C          0.06878        2.11363        1.34602
H         -1.12987        1.89879       -0.33600
H          1.54948        3.11864       -0.72047
H          0.29219        2.90096       -1.96439
H          0.02349        4.04174       -0.61658
H          1.13737        2.08981        1.56315
H         -0.37365        3.04993        1.69140
H         -0.41399        1.26045        1.82176
N          4.58537       -0.00688       -0.10959
C          4.23427        0.32013        1.26594
C          3.99051        0.90333       -1.07569
H          5.59359       -0.00656       -0.21507
H          3.16405        0.14863        1.42047
H          4.77498       -0.33970        1.94955
H          4.46630        1.36700        1.53554
H          2.90536        0.75675       -1.08694
H          4.20330        1.96808       -0.86196
H          4.36199        0.67414       -2.07828
