38
2msa2dma_86.log	Energy: -1003283.0508844
S          2.90429       -0.18859        0.02095
O          2.97546       -1.65623        0.10805
O          3.08877        0.55430        1.26518
O          1.59740        0.20601       -0.68129
C          4.17124        0.33846       -1.12119
H          5.13564        0.07510       -0.68587
H          4.02170       -0.17572       -2.07045
H          4.09106        1.41852       -1.24627
S         -1.11009        1.93132        0.04243
O         -1.29146        1.53509        1.43619
O         -1.59360        0.97710       -0.95966
O          0.37084        2.32360       -0.25766
H          0.96006        1.46763       -0.40733
C         -1.89219        3.50582       -0.21270
H         -2.95670        3.36730       -0.02127
H         -1.46404        4.21814        0.49220
H         -1.71880        3.81605       -1.24252
N         -0.25728       -1.72679        0.12076
C          0.19397       -3.01518       -0.44746
C         -0.05160       -1.62098        1.58531
H          0.28073       -0.95983       -0.33088
H         -0.35437       -3.82719        0.03483
H         -0.01370       -3.01478       -1.51835
H          1.26685       -3.11153       -0.27741
H         -0.64981       -2.39048        2.07842
H          1.00740       -1.76536        1.80258
H         -0.37142       -0.62817        1.90557
H         -1.28600       -1.62720       -0.07582
N         -3.08043       -1.93501       -0.15017
C         -3.55012       -1.55140       -1.48343
C         -3.66529       -1.10894        0.90909
H         -3.32613       -2.90624        0.01727
H         -3.20968       -0.53549       -1.69375
H         -3.11838       -2.22304       -2.23061
H         -4.64662       -1.58701       -1.57104
H         -3.28661       -0.08934        0.81290
H         -4.76479       -1.08770        0.87011
H         -3.35481       -1.49035        1.88536
