40
2msa1dma1eda_471.log	Energy: -1038010.9730526
S         -1.71213        0.55922        1.07387
O         -1.56909        1.98893        1.37913
O         -1.24430        0.17072       -0.28321
O         -3.13219        0.06650        1.27406
H         -3.67221       -0.48191        0.05117
C         -0.73541       -0.34509        2.25491
H          0.32290       -0.15777        2.05136
H         -1.02038       -0.00934        3.25221
H         -0.94943       -1.40732        2.13246
S          2.48089       -1.65275        0.06727
O          2.31245       -0.68413        1.17901
O          3.45151       -2.72184        0.29303
O          2.71777       -0.89508       -1.22495
H          2.94205        0.51690       -0.84442
C          0.88925       -2.43331       -0.17574
H          0.65990       -3.00513        0.72533
H          0.14764       -1.65009       -0.34614
H          0.97076       -3.10141       -1.03424
N         -4.04657       -0.88858       -0.90966
C         -3.24534       -2.08698       -1.24972
C         -3.95815        0.18835       -1.92336
H         -5.02037       -1.15008       -0.76496
H         -2.20313       -1.77282       -1.31419
H         -3.35454       -2.82181       -0.45147
H         -3.58437       -2.50865       -2.19821
H         -2.91071        0.48531       -1.98923
H         -4.32506       -0.17341       -2.88624
H         -4.55271        1.03699       -1.58404
H          3.00145        3.47154       -1.40570
H          2.53904        2.12550       -2.47561
H          0.52104        3.39247       -1.67685
H          0.49822        1.72569       -1.08444
H          1.12709        4.08099        0.51007
H          0.14940        2.80112        0.85393
H          4.12449        1.68241       -0.45714
H          2.69439        1.67229        0.39494
C          2.47087        2.51610       -1.45802
C          1.02156        2.68439       -1.00198
N          3.11957        1.55318       -0.53779
N          1.01963        3.07874        0.40030
