37
2msa1ma1eda_179.log	Energy: -1013361.0880278
S          2.57398       -0.21281       -0.19441
O          2.48548       -0.99399        1.05139
O          1.90259        1.12844       -0.07379
O          2.11204       -0.94505       -1.40041
C          4.29271        0.16584       -0.47103
H          4.37105        0.76269       -1.37955
H          4.66203        0.71776        0.39319
H          4.82485       -0.77901       -0.58279
S         -1.27507        2.15702        0.13894
O         -2.41720        2.64862        0.88031
O         -1.51097        1.14287       -0.90014
O         -0.22434        1.60818        1.17213
H          0.66418        1.34879        0.71132
C         -0.41776        3.50730       -0.64126
H         -1.08134        3.91385       -1.40500
H         -0.19778        4.25476        0.12075
H          0.49798        3.11247       -1.08443
N          0.01328       -2.56088        1.62410
H         -0.02430       -3.53431        1.90668
C         -0.76921       -1.71614        2.53726
H         -0.50081       -1.85190        3.59169
H         -0.60649       -0.66785        2.27615
H         -1.83397       -1.92300        2.40453
H          0.99169       -2.26602        1.62948
H         -1.74487       -1.36113       -2.56798
H         -1.10010       -2.98312       -2.26687
H         -3.56826       -2.76408       -1.81262
H         -2.63142       -3.37709       -0.44453
H         -3.36239       -0.52791       -0.63432
H         -4.08010       -1.64260        0.34125
H          0.38921       -1.39040       -1.28159
H         -0.88083       -0.57257       -0.60478
C         -1.54123       -2.10435       -1.79183
C         -2.82165       -2.48499       -1.05256
N         -0.55423       -1.51439       -0.86540
N         -3.22873       -1.41449       -0.15640
H         -0.42124       -2.06672        0.04154
