25
2msa1ma_22.log	Energy: -893802.9289346
S          1.18468        1.01331        0.10208
O          0.33231        1.66793        1.09047
O          0.92382       -0.48281        0.00647
O          2.65551        1.21740        0.29526
H          3.40358       -0.22154        0.62896
C          0.78281        1.67203       -1.49962
H         -0.26866        1.44624       -1.68780
H          0.96036        2.74728       -1.46428
H          1.42410        1.19711       -2.24203
S         -2.64500       -0.48080       -0.14356
O         -3.84478       -1.28398       -0.25446
O         -2.13247        0.23098       -1.31008
O         -1.50044       -1.44072        0.41297
H         -0.59852       -1.04895        0.23463
C         -2.84467        0.69525        1.17784
H         -3.61715        1.39824        0.86352
H         -3.15830        0.15271        2.06958
H         -1.88991        1.20307        1.33150
N          3.38572       -1.28124        0.61215
H          3.64318       -1.66181        1.51965
C          4.19286       -1.82917       -0.49909
H          4.04338       -2.90615       -0.56996
H          3.85975       -1.35173       -1.41992
H          5.24584       -1.60572       -0.33091
H          2.35988       -1.39954        0.44579
