40
2msa1dma1eda_286.log	Energy: -1038020.8961108
S          2.76036        0.71605        0.47386
O          4.04462        1.37965        0.43597
O          2.93664       -0.69553       -0.20251
O          1.60806        1.40494       -0.12933
H          0.21222        1.12962       -1.17313
C          2.32435        0.32689        2.15182
H          3.15099       -0.23274        2.58948
H          2.18347        1.27434        2.67381
H          1.40264       -0.26069        2.13449
S         -0.48381       -1.95886        0.00597
O         -1.60765       -1.36068       -0.76956
O         -0.31202       -1.37283        1.34585
O          0.78170       -1.93383       -0.79900
H          2.05554       -1.17116       -0.38346
C         -0.89051       -3.67893        0.21824
H         -0.07190       -4.15335        0.75959
H         -1.81635       -3.73376        0.79129
H         -1.01516       -4.12697       -0.76744
N         -0.46584        0.89798       -1.92177
C          0.26957        0.29980       -3.05861
C         -1.24917        2.10181       -2.26508
H         -1.07465        0.16937       -1.49187
H          1.00606        1.01742       -3.42258
H          0.76090       -0.60533       -2.70221
H         -0.44012        0.05260       -3.84944
H         -0.57727        2.85790       -2.67462
H         -2.00631        1.83656       -3.00462
H         -1.71237        2.45850       -1.34598
H         -3.78085        1.81276       -0.22610
H         -4.68937        1.91410        1.29001
H         -2.59050        3.16916        1.39854
H         -2.64905        1.86887        2.60488
H         -0.52959        2.10537        1.25018
H         -1.16201        0.61026        1.23905
H         -4.72643       -0.33060        0.69202
H         -3.11675       -0.41099        0.42301
C         -3.79017        1.48838        0.83052
C         -2.57085        2.08026        1.52825
N         -3.83174        0.04016        0.99033
N         -1.33214        1.56909        0.93654
