42
2msa2eda_347.log	Energy: -1072754.0508984
S         -1.98193       -1.60070        0.34344
O         -1.16526       -1.37673       -0.85915
O         -3.28323       -0.94764        0.37266
O         -1.16910       -1.23610        1.61513
H         -0.17209       -0.88771        1.43000
C         -2.22482       -3.35170        0.52820
H         -2.83261       -3.68845       -0.31198
H         -1.24762       -3.83438        0.52145
H         -2.74069       -3.52334        1.47280
S          1.65236        0.91310        1.50039
O          2.81561        0.89123        2.37550
O          1.11990       -0.48985        1.21722
O          1.85217        1.60985        0.19750
H          1.46305        0.59950       -1.08213
C          0.31616        1.75635        2.32088
H          0.65962        2.77126        2.52615
H         -0.55994        1.76818        1.66201
H          0.10638        1.23171        3.25396
H         -3.11352        3.05876       -1.55619
H         -2.01779        3.97128       -0.50958
H         -0.76899        3.28106       -2.44235
H         -0.17853        2.39883       -1.03127
H         -1.87414        1.35822       -3.19915
H         -1.56110        0.50984       -1.83549
H         -3.10123        2.51601        0.91361
H         -2.87914        1.20040       -0.00625
C         -2.23577        2.96818       -0.89299
C         -1.03087        2.50842       -1.71161
N         -2.46022        2.09041        0.25329
N         -1.20467        1.24655       -2.44424
H          2.07911       -1.37908       -3.21975
H          2.86451        0.21432       -3.04440
H          4.20302       -1.64310       -2.02655
H          3.75702       -0.40284       -0.85043
H          3.33319       -2.97924       -0.43207
H          2.28108       -1.86119        0.14098
H          0.48208        0.35702       -2.42413
H          0.69930       -0.85319       -1.32560
C          2.40008       -0.61624       -2.50701
C          3.35953       -1.21179       -1.47960
N          1.19755       -0.09964       -1.81804
N          2.68529       -2.25270       -0.70857
