37
2msa1ma1eda_343.log	Energy: -1013355.4865457
S         -1.07229       -1.64899       -0.16691
O         -2.07290       -1.51470       -1.22987
O         -1.51782       -1.25823        1.18223
O          0.20299       -0.89286       -0.52238
C         -0.57486       -3.36186       -0.10494
H         -1.45762       -3.95296        0.14060
H         -0.18715       -3.64112       -1.08487
H          0.18782       -3.47552        0.66622
S          3.27968        0.23020        0.09208
O          2.78172        0.88438        1.30897
O          3.12887        0.97407       -1.14975
O          2.65947       -1.21132       -0.03630
H          1.65126       -1.16127       -0.23816
C          4.98011       -0.20733        0.34351
H          5.52694        0.72818        0.46442
H          5.05134       -0.81739        1.24331
H          5.32864       -0.74942       -0.53492
N         -4.08396        0.27900        0.30546
H         -3.84014       -0.25312       -0.52687
C         -5.52450        0.25405        0.54302
H         -5.94844       -0.75507        0.64862
H         -5.75524        0.81282        1.45519
H         -6.03960        0.75087       -0.28465
H         -3.57881       -0.19237        1.05242
H          0.29466        3.40907       -0.35757
H          0.66142        1.94945       -1.31390
H         -1.64017        2.96905       -1.85724
H         -1.72045        1.29650       -1.30031
H         -2.66891        3.61348        0.11976
H         -3.10054        2.00099        0.25002
H          1.00303        1.70414        1.15581
H         -0.70833        1.87874        1.26254
C         -0.01393        2.38339       -0.57491
C         -1.48738        2.32080       -0.98703
N          0.09871        1.60009        0.68212
N         -2.31851        2.66507        0.16276
H          0.01307        0.59162        0.44328
