42
2msa2eda_577.log	Energy: -1072743.1365196
S         -3.12807        0.73373       -0.48708
O         -4.31648        1.55592       -0.60436
O         -3.24776       -0.60679        0.09599
O         -2.04631        1.53472        0.33501
H         -1.42864        0.90356        0.90202
C         -2.37024        0.57372       -2.08777
H         -1.39829        0.08890       -1.97128
H         -3.04396       -0.02265       -2.70444
H         -2.25363        1.57373       -2.50612
S          1.56627       -1.29360       -1.00931
O          0.74478       -0.17896       -1.50467
O          1.01316       -2.64375       -1.27031
O          1.85300       -1.14522        0.47893
H          0.95215       -2.22676        1.19731
C          3.15413       -1.17129       -1.79939
H          3.57219       -0.19615       -1.53480
H          3.78456       -1.98345       -1.43681
H          2.99298       -1.25789       -2.87431
H          3.17373        2.67724        2.01896
H          4.20636        3.35516        0.74427
H          1.89253        4.18003        0.63944
H          2.37683        3.34368       -0.84540
H          0.11736        2.80385        0.26814
H          0.99814        1.56155       -0.27703
H          4.62481        1.05083        0.83545
H          3.04709        0.65724        0.72395
C          3.37218        2.66997        0.93452
C          2.13535        3.19810        0.21840
N          3.74039        1.34522        0.43479
N          0.99026        2.30796        0.41706
H         -0.60493       -1.41076        3.37622
H         -2.14953       -0.85486        2.71446
H         -1.90763       -2.96599        1.73751
H         -1.40863       -1.85271        0.46300
H          0.35295       -3.53750        2.14280
H          0.21558       -3.46604        0.46614
H         -0.33390        0.82705        2.59189
H          0.38977       -0.04485        1.42834
C         -1.11279       -1.08458        2.45521
C         -1.15421       -2.23002        1.45386
N         -0.51158        0.12300        1.88098
N          0.16253       -2.93446        1.34558
