31
2msa1tma_23.log	Energy: -943118.3511284
S          1.40651        1.65765        0.03787
O          2.24943        2.60574        0.76345
O          0.53868        0.80107        0.89144
O          2.17698        0.78643       -0.92812
H          2.19368       -0.63712       -0.43351
C          0.30636        2.60746       -1.00203
H         -0.27922        3.26413       -0.35692
H          0.91321        3.19745       -1.68921
H         -0.34173        1.91649       -1.54178
S         -2.92678       -0.46515        0.05217
O         -2.18620       -1.65796        0.40874
O         -4.35769       -0.53260       -0.19840
O         -2.25210        0.12834       -1.31187
H         -2.96946        0.27102       -1.94586
C         -2.55101        0.82540        1.20594
H         -2.92924        0.49215        2.17375
H         -1.46207        0.95062        1.22679
H         -3.06465        1.73128        0.88423
N          2.23515       -1.65733       -0.06851
C          0.88414       -2.23657       -0.25853
H          0.16532       -1.63260        0.29285
H          0.63473       -2.20539       -1.31964
H          0.87395       -3.26895        0.10044
C          3.26613       -2.35678       -0.86174
H          2.98241       -2.32746       -1.91439
H          4.22017       -1.84432       -0.73305
H          3.34982       -3.39392       -0.52689
C          2.59424       -1.57424        1.36715
H          3.56044       -1.07614        1.45860
H          1.83361       -0.97446        1.86771
H          2.64538       -2.58130        1.78923
