34
2msa1a1eda_305.log	Energy: -988689.7194384
S          1.02221       -1.93850       -0.13604
O          0.47928       -3.29226       -0.13765
O          0.82408       -1.19691        1.12847
O          0.45047       -1.10327       -1.33404
H         -0.52335       -0.81981       -1.15425
C          2.74030       -1.91792       -0.53679
H          3.25202       -2.45709        0.26150
H          2.86411       -2.43122       -1.49075
H          3.06356       -0.86600       -0.59440
S         -2.36684        0.82148       -0.24416
O         -1.94429       -0.53372       -0.76118
O         -1.36258        1.86107       -0.44562
O         -2.84977        0.66838        1.16485
H         -2.25356       -0.68100        1.76460
C         -3.80775        1.25679       -1.19860
H         -4.18716        2.20350       -0.81303
H         -3.50261        1.36099       -2.23995
H         -4.55215        0.46845       -1.08867
N         -1.76055       -1.61099        1.94928
H         -1.94956       -1.97992        2.87641
H         -0.73607       -1.46273        1.79862
H         -2.06861       -2.26700        1.23154
H          1.97436        2.90786       -1.15213
H          1.25662        1.29474       -1.09964
H          0.80696        2.42536        0.97968
H          1.90774        1.07440        1.27969
H          2.68892        3.89754        1.17177
H          2.88740        2.84630        2.40312
H          3.62034        1.36836       -1.90029
H          4.05004        1.76593       -0.36920
C          2.05443        1.91346       -0.68194
C          1.82916        2.06191        0.81513
N          3.35297        1.27520       -0.92584
N          2.87052        2.92320        1.39273
