37
2msa1ma1eda_386.log	Energy: -1013355.7734556
S          2.92582       -1.05157       -0.05844
O          4.11548       -1.68307        0.47925
O          3.01737       -0.28777       -1.30077
O          2.30959       -0.10229        1.05943
H          2.10505        0.83999        0.69205
C          1.65360       -2.28134       -0.22878
H          1.98933       -2.97729       -0.99880
H          1.55265       -2.79450        0.72780
H          0.71264       -1.80264       -0.50727
S         -2.77856       -0.70556       -0.28374
O         -1.35222       -1.08448       -0.14437
O         -3.02004        0.29661       -1.34275
O         -3.35224       -0.28200        1.03944
H         -2.31727        0.75530        1.67947
C         -3.68201       -2.17365       -0.73784
H         -3.28674       -2.52889       -1.68986
H         -3.53879       -2.92024        0.04333
H         -4.73510       -1.90925       -0.83309
N         -1.48587        1.36982        1.94987
H         -1.17796        1.82331        1.04045
C         -0.42328        0.51695        2.53324
H          0.46151        1.11217        2.75926
H         -0.80070        0.04580        3.44086
H         -0.17636       -0.24579        1.79610
H         -1.79808        2.09281        2.59379
H          1.37293        3.44747       -1.55408
H          2.22016        1.89663       -1.76813
H         -0.07554        1.67008       -2.50377
H          0.19392        0.65215       -1.09270
H         -1.08911        3.28798       -0.97516
H         -1.84058        1.83485       -0.96333
H          2.71744        2.83895        0.36179
H          1.14073        2.84226        0.78652
C          1.44303        2.40875       -1.19796
C          0.12528        1.69152       -1.42557
N          1.83365        2.35628        0.22342
N         -0.98056        2.32011       -0.67912
