37
2msa1ma1eda_112.log	Energy: -1013363.6539956
S         -1.31925       -1.85468       -0.42225
O         -1.27822       -0.83680       -1.51597
O         -1.83253       -1.30081        0.84923
O         -0.01125       -2.54358       -0.25217
H          0.80133       -1.59944        0.94540
C         -2.46708       -3.09549       -0.98470
H         -3.43580       -2.61805       -1.13235
H         -2.09087       -3.50506       -1.92206
H         -2.52861       -3.87019       -0.22036
S         -1.00887        2.29251        0.12437
O         -0.93602        3.73039       -0.02475
O          0.17133        1.61087        0.68552
O         -1.33760        1.68660       -1.28442
H         -1.28852        0.66348       -1.32045
C         -2.41346        1.85180        1.11923
H         -2.24528        2.26851        2.11330
H         -3.29573        2.29884        0.66101
H         -2.47840        0.76055        1.14928
N          1.18910       -0.87710        1.59053
H          2.21182       -0.76121        1.34075
C          0.93537       -1.23993        2.99585
H          1.29746       -0.44733        3.65131
H         -0.13778       -1.37676        3.13106
H          1.45399       -2.17107        3.22583
H          0.71280        0.00407        1.34118
H          4.34398       -0.68096       -1.57329
H          3.04683       -1.78751       -1.07501
H          2.24067        0.11374       -2.50692
H          1.42848        0.01371       -0.96457
H          3.13325        2.12787       -1.85259
H          2.01952        2.10394       -0.64317
H          4.55082       -1.05298        0.76258
H          3.96077        0.46816        0.54125
C          3.43968       -0.77240       -0.95485
C          2.39222        0.23947       -1.42854
N          3.73617       -0.52543        0.46653
N          2.79234        1.59800       -1.06099
