43
2msa1eda1tma_153.log	Energy: -1062675.4161526
S          0.42911        2.22041       -0.11262
O          1.40427        2.33178       -1.23321
O          0.99467        1.55818        1.07839
O         -0.84013        1.56688       -0.54951
H         -0.74914        0.09391       -0.98011
C          0.00825        3.89252        0.33282
H          0.92448        4.39158        0.64613
H         -0.42138        4.37883       -0.54223
H         -0.71113        3.85777        1.15184
S         -0.27318       -1.92775       -0.18607
O         -0.86938       -3.20380       -0.52082
O         -0.71763       -0.88608       -1.28397
O          1.19253       -1.87438       -0.00603
H          2.22577       -0.62567       -0.60102
C         -0.96129       -1.27453        1.30746
H         -2.02455       -1.04235        1.12938
H         -0.81049       -2.04301        2.06904
H         -0.42042       -0.36129        1.55803
H          4.30883        0.99955        0.66581
H          2.83130        0.36099        1.41149
H          4.80305       -1.12608        1.92204
H          3.57079       -1.95586        0.96100
H          6.14891       -0.98796       -0.01804
H          5.41365       -2.42695       -0.27535
H          2.52166        1.01710       -0.91314
H          3.66516       -0.20459       -1.35003
C          3.61142        0.15751        0.67424
C          4.32523       -1.16381        0.93471
N          2.96767        0.09626       -0.66256
N          5.25031       -1.43434       -0.16328
N         -3.87045       -0.29928        0.24991
C         -4.89801       -1.30566        0.46282
H         -4.64254       -2.22584       -0.07548
H         -4.97370       -1.53831        1.53230
H         -5.89233       -0.97316        0.11561
C         -4.14330        0.90046        1.02322
H         -4.22001        0.66059        2.08816
H         -3.31178        1.60913        0.89026
H         -5.08151        1.39816        0.71308
C         -3.69195        0.01149       -1.16568
H         -2.89631        0.75586       -1.26835
H         -3.38268       -0.88803       -1.70333
H         -4.62021        0.40606       -1.61313
