37
2msa1ma1eda_552.log	Energy: -1013348.3803148
S         -0.40540       -1.82875       -0.57979
O          0.79706       -2.64696       -0.71519
O         -0.35499       -0.92722        0.64787
O         -1.69506       -2.58243       -0.55236
H         -2.66299       -2.05559        0.68730
C         -0.49642       -0.72645       -1.97141
H          0.42699       -0.14725       -1.99599
H         -0.60797       -1.33735       -2.86773
H         -1.35570       -0.07003       -1.83088
S          2.85887        0.51517        0.35293
O          3.82515        1.44260        0.90349
O          2.11989        0.88349       -0.85603
O          1.82007        0.18945        1.50713
H          0.99848       -0.26216        1.13790
C          3.63233       -1.05865        0.05767
H          4.36700       -0.91067       -0.73491
H          4.11953       -1.37130        0.98111
H          2.85962       -1.76810       -0.24922
N         -2.83718       -1.45081        1.53775
H         -3.01062       -2.04108        2.34786
C         -3.89486       -0.43655        1.31528
H         -3.99642        0.17853        2.21005
H         -3.60321        0.19087        0.46323
H         -4.83672       -0.94357        1.10551
H         -1.89291       -1.02181        1.61006
H         -2.56070        3.87745       -0.04087
H         -2.88681        2.61982        1.15633
H         -0.47772        3.02540        1.01709
H         -0.84404        1.39482        0.43891
H         -0.20523        3.67415       -1.26653
H          0.54590        2.22447       -1.15902
H         -4.02459        2.33580       -1.06824
H         -2.54416        1.98991       -1.67037
C         -2.44494        2.80141        0.16787
C         -0.95884        2.45841        0.20606
N         -3.11417        1.95793       -0.82616
N         -0.36061        2.68350       -1.10785
