37
2msa1ma1eda_256.log	Energy: -1013360.9434622
S         -2.34581       -0.69325       -0.35678
O         -2.72585       -0.02610        0.90070
O         -1.41171       -1.84517       -0.14176
O         -1.84058        0.24489       -1.39615
C         -3.82062       -1.42714       -1.03778
H         -4.54151       -0.62927       -1.21690
H         -3.55824       -1.92705       -1.97006
H         -4.20741       -2.14057       -0.31000
S          1.85604       -1.68521        0.43282
O          3.05654       -1.95949        1.19603
O          1.75065       -0.39001       -0.24860
O          0.62255       -1.87697        1.39074
H         -0.24822       -1.79823        0.86447
C          1.61104       -2.95169       -0.79548
H          2.41398       -2.85878       -1.52744
H          1.65463       -3.91903       -0.29525
H          0.63421       -2.78768       -1.25393
N          2.74861        1.99632       -1.58205
H          2.80633        0.98705       -1.69577
C          3.57781        2.40215       -0.44098
H          4.64614        2.19531       -0.57586
H          3.45214        3.47362       -0.26131
H          3.23876        1.85940        0.44468
H          3.07018        2.43023       -2.44062
H          0.30851        3.86874        0.24532
H         -0.89652        3.63383       -1.04296
H         -1.90717        3.93932        1.29769
H         -2.39949        2.45433        0.47314
H         -0.94953        2.61084        2.89288
H         -1.54750        1.28277        2.09949
H          1.04593        2.00074       -1.00586
H          0.38791        1.45163        0.43646
C         -0.47586        3.20529       -0.13054
C         -1.55186        2.96825        0.93600
N          0.15497        1.91016       -0.45431
N         -1.00456        2.13657        2.00233
H         -0.51579        1.26844       -0.93168
