40
2msa1dma1eda_539.log	Energy: -1038002.9972315
S          2.75550       -1.42377        0.02382
O          3.21954       -0.06995        0.31746
O          2.40214       -1.73345       -1.35523
O          1.57808       -1.81729        0.99956
H          0.76560       -1.21791        0.85345
C          3.97267       -2.58448        0.59674
H          4.87056       -2.41727        0.00119
H          4.16596       -2.38980        1.65105
H          3.58644       -3.59147        0.44213
S         -1.31524       -0.12657       -0.48097
O         -0.39048       -0.23645        0.68151
O         -2.23950        1.03724       -0.32434
O         -2.08893       -1.38794       -0.70803
H         -3.69755       -1.12303       -0.17101
C         -0.32469        0.16389       -1.91872
H          0.28952        1.05639       -1.73809
H          0.32160       -0.70503       -2.05976
H         -0.99850        0.29702       -2.76567
N         -4.38207       -0.43716        0.23659
C         -4.48653       -0.66177        1.69331
C         -5.66103       -0.42991       -0.49496
H         -3.81866        0.43014        0.06126
H         -4.94649       -1.63359        1.87787
H         -3.48071       -0.64150        2.11422
H         -5.09085        0.12894        2.14029
H         -6.15640       -1.39386       -0.36888
H         -6.29950        0.36531       -0.10693
H         -5.45868       -0.25642       -1.55181
H          2.57903        4.05436        0.06881
H          1.11921        4.27447       -0.92011
H          0.46359        3.98332        1.35804
H         -0.04861        2.55607        0.44142
H          1.00337        1.98626        2.54355
H          1.96754        1.45793        1.35701
H          2.56549        2.74792       -2.01058
H          2.58599        1.72788       -0.74178
C          1.68946        3.54484       -0.33348
C          0.82872        3.08976        0.83746
N          2.01807        2.42463       -1.22006
N          1.60823        2.30367        1.79337
