35
2msa1ma1dma_226.log	Energy: -978618.6337695
S         -1.83394       -1.32121       -0.11874
O         -2.93721       -0.35871        0.07897
O         -1.03558       -1.58547        1.09865
O         -0.96022       -0.93189       -1.28056
C         -2.57876       -2.87396       -0.59223
H         -3.24389       -3.18603        0.21335
H         -3.13769       -2.71767       -1.51494
H         -1.78640       -3.60792       -0.74137
S          2.74029       -0.21202        0.01174
O          2.99007        0.39239       -1.28199
O          2.07939        0.56958        1.04959
O          4.17935       -0.66367        0.62431
H          4.24950       -0.29688        1.51698
C          1.94930       -1.77663       -0.21113
H          0.99884       -1.57508       -0.71753
H          2.60881       -2.39404       -0.82147
H          1.76152       -2.21495        0.76830
N         -0.65836        1.39709        1.74870
H         -0.57010        0.37768        1.74177
C         -1.88151        1.78039        2.46118
H         -1.87357        1.49580        3.52046
H         -2.02455        2.86364        2.39603
H         -2.72549        1.28453        1.97606
H          0.17536        1.75647        2.20232
N         -0.81529        1.80936       -0.95743
C          0.31286        2.55035       -1.54902
C         -2.13994        2.40964       -1.21209
H         -0.82333        0.81534       -1.27780
H          0.36369        3.54407       -1.09878
H          1.24158        2.01287       -1.35817
H          0.16436        2.64622       -2.62664
H         -2.18373        3.39370       -0.74013
H         -2.29685        2.51189       -2.28802
H         -2.89155        1.74378       -0.78586
H         -0.69057        1.71653        0.11671
