42
2msa2eda_47.log	Energy: -1072769.7393254
S          2.13905        1.65258       -0.20919
O          1.31642        2.70768       -0.85428
O          2.71178        0.66886       -1.15510
O          1.38901        0.98126        0.89795
C          3.51357        2.48724        0.56147
H          4.08868        2.98710       -0.21846
H          3.11973        3.21171        1.27436
H          4.11844        1.73649        1.07210
S         -2.26053       -1.65991       -0.09909
O         -1.30360       -2.54394        0.62483
O         -1.52858       -0.74753       -1.03406
O         -3.20887       -0.95031        0.77497
C         -3.23371       -2.73936       -1.13516
H         -2.56169       -3.29155       -1.79206
H         -3.78507       -3.42005       -0.48616
H         -3.92009       -2.12358       -1.71672
H         -2.21648        3.72739       -0.28896
H         -2.52272        2.67574       -1.69073
H         -4.48260        2.83754       -0.03992
H         -3.93040        1.18902       -0.36539
H         -3.94479        2.45368        2.13508
H         -3.42226        0.93100        1.74088
H         -0.33296        2.28033       -0.53848
H         -1.22881        1.81741        0.79970
C         -2.41682        2.70028       -0.60408
C         -3.65282        2.13780        0.10427
N         -1.24481        1.88345       -0.22484
N         -3.35160        1.91945        1.51579
H         -1.32527        0.90352       -0.57946
H          2.27413       -2.66764        1.71496
H          1.70219       -3.69936        0.38425
H          4.11898       -3.50267        0.30139
H          3.41131       -2.74587       -1.12516
H          5.22889       -1.51121        0.19883
H          3.90358       -0.63224       -0.20665
H          0.25078       -1.94511        0.41780
H          1.42528       -0.74120        0.64050
C          2.17429       -2.74490        0.63087
C          3.53883       -2.63702       -0.03408
N          1.24100       -1.67138        0.20228
N          4.23218       -1.41868        0.35396
H          1.28822       -1.49551       -0.80364
