37
2msa1ma1eda_325.log	Energy: -1013358.4545212
S          2.88476       -0.50493       -0.51554
O          4.33353       -0.56152       -0.51245
O          2.25651        0.59004       -1.27836
O          2.32366       -0.43285        0.96250
H          2.03864        0.52546        1.19484
C          2.21429       -2.05450       -1.04762
H          2.64399       -2.83333       -0.41708
H          1.12527       -2.01146       -0.94798
H          2.52219       -2.18953       -2.08528
S         -1.93467       -1.39884        0.43100
O         -0.89850       -1.62812       -0.60496
O         -3.28981       -1.22579       -0.12388
O         -1.53142       -0.27030        1.33831
H         -0.66711        0.68354        0.27863
C         -1.97342       -2.85087        1.46910
H         -2.24172       -3.70316        0.84408
H         -0.98437       -2.98615        1.90744
H         -2.72261       -2.69516        2.24572
N         -2.71547        1.18306       -1.87354
H         -2.86267        1.34651       -2.86417
C         -3.66765        1.95731       -1.06813
H         -4.71667        1.73790       -1.29845
H         -3.50491        1.71510       -0.01447
H         -3.49557        3.02803       -1.21808
H         -2.88620        0.19055       -1.69594
H          0.46817        3.31349       -0.47973
H         -1.15613        3.17128        0.20495
H          0.33978        3.63234        2.01521
H         -0.25639        1.97035        2.18083
H          2.37609        2.63934        1.04255
H          2.10999        2.11287        2.56317
H         -1.10164        1.35645       -1.17228
H          0.55514        1.01523       -0.84792
C         -0.17012        2.70216        0.16561
C          0.38336        2.62523        1.58150
N         -0.32677        1.36863       -0.44498
N          1.74864        2.07587        1.61349
