40
2msa1dma1eda_322.log	Energy: -1038016.2170927
S          0.76040        2.31490       -0.36328
O          0.33874        2.39871        1.06376
O         -0.28777        2.70634       -1.31094
O          1.34039        0.95742       -0.67313
C          2.13350        3.43622       -0.53436
H          1.77024        4.44079       -0.31712
H          2.90778        3.14278        0.17433
H          2.49744        3.36941       -1.55964
S         -0.48799       -2.04863       -0.67385
O         -1.71384       -2.64393       -1.17556
O         -0.49792       -1.56464        0.71966
O         -0.11995       -0.86028       -1.62934
H          0.48789       -0.13135       -1.21765
C          0.86498       -3.17896       -0.83530
H          0.62256       -4.05500       -0.23206
H          0.95011       -3.44562       -1.88890
H          1.76184       -2.66650       -0.45724
N          2.90943       -1.19469        0.71736
C          4.30250       -0.88752        0.44380
C          2.67690       -1.60445        2.09211
H          2.33991       -0.38057        0.49744
H          4.90606       -1.79970        0.51893
H          4.39893       -0.49983       -0.57391
H          4.73133       -0.14490        1.14038
H          3.19419       -2.55165        2.28706
H          3.03380       -0.86946        2.83473
H          1.60619       -1.76259        2.24485
H         -3.01677        2.00207       -0.01073
H         -2.06681        0.78083       -0.85721
H         -4.50090        0.13575       -0.76818
H         -3.47718       -1.03366        0.06031
H         -5.22039        0.93737        1.34237
H         -5.04170       -0.65268        1.67493
H         -1.09161        1.51928        1.29812
H         -2.47360        0.80457        2.04910
C         -2.68722        0.96098        0.02186
C         -3.85866       -0.00898        0.10895
N         -1.84800        0.79419        1.23811
N         -4.54451        0.18233        1.39019
H         -1.36571       -0.12517        1.19676
