37
2msa1ma1eda_388.log	Energy: -1013353.9821608
S         -0.75692        1.81117       -0.79527
O         -1.76591        2.82815       -1.00553
O         -1.17243        0.56285       -1.67727
O         -0.54031        1.34330        0.58788
H         -0.89681       -0.24321        1.17719
C          0.80764        2.30881       -1.45695
H          1.23161        3.04744       -0.77414
H          1.45481        1.42824       -1.47401
H          0.63026        2.71501       -2.45261
S          1.42237       -1.70634       -0.46149
O          1.31584       -2.07613        0.96824
O          2.25284       -0.52565       -0.74390
O          0.04640       -1.58759       -1.08272
H         -0.60565       -0.26779       -1.47879
C          2.17738       -3.09091       -1.29224
H          3.16905       -3.23140       -0.86146
H          1.55767       -3.97247       -1.12878
H          2.24776       -2.85584       -2.35419
N          2.49909        1.93280        1.24914
H          1.57401        1.90509        1.66572
C          3.53260        2.03241        2.27294
H          3.53405        1.21352        3.00934
H          4.51512        2.05016        1.79227
H          3.42104        2.97619        2.81608
H          2.59404        1.06744        0.72187
H         -2.86952       -2.16448        2.28818
H         -2.40175       -0.61443        3.03394
H         -4.53178       -0.44217        1.64768
H         -3.25261        0.63548        1.09638
H         -4.40057       -1.51780       -0.36532
H         -3.30777       -0.39672       -0.88582
H         -0.48566       -1.72984        1.78673
H         -1.40412       -1.60956        0.42989
C         -2.54678       -1.14016        2.08791
C         -3.54469       -0.41689        1.17527
N         -1.25885       -1.19989        1.36688
N         -3.53577       -1.04565       -0.14134
