43
2msa1eda1tma_180.log	Energy: -1062673.7569360
S          2.67130       -1.85830        0.08844
O          3.95122       -2.52151       -0.02871
O          2.32997       -1.22122       -1.30665
O          2.52837       -0.83012        1.13603
H          1.85753        0.71615        1.34513
C          1.38220       -3.05270        0.33889
H          1.56084       -3.51975        1.30814
H          0.42584       -2.52321        0.32046
H          1.45165       -3.78808       -0.46274
S         -0.80873        0.43058       -0.51522
O         -0.87452        1.53216        0.48139
O         -1.02394       -0.91302        0.04413
O          0.49755        0.52016       -1.27327
H          1.54596       -0.56046       -1.27059
C         -2.08755        0.73773       -1.70813
H         -3.04974        0.65659       -1.18704
H         -1.93595        1.73492       -2.12196
H         -2.00327       -0.02225       -2.48592
H          2.51804        3.60537        1.51631
H          3.62089        2.23219        1.83924
H          4.02013        3.10316       -0.39514
H          3.34748        1.47904       -0.51897
H          2.37417        3.55173       -1.86575
H          1.37943        2.35678       -1.33797
H          1.36931        1.75595        2.54302
H          0.74072        1.92124        1.02258
C          2.77939        2.58303        1.23640
C          3.10701        2.51805       -0.25051
N          1.61722        1.70861        1.55642
N          2.02341        3.08654       -1.03854
N         -4.65702       -0.16954        0.18388
C         -4.15824        0.18094        1.50442
H         -3.09275       -0.05303        1.56959
H         -4.28264        1.25467        1.67272
H         -4.68981       -0.36238        2.30991
C         -6.05862        0.17520        0.03692
H         -6.20073        1.24443        0.22055
H         -6.39070       -0.04381       -0.98271
H         -6.70766       -0.38501        0.73795
C         -4.42169       -1.57443       -0.10884
H         -4.74387       -1.79654       -1.13153
H         -3.35257       -1.78775       -0.02624
H         -4.97304       -2.24431        0.57878
