40
2msa1dma1eda_345.log	Energy: -1038018.4228261
S         -1.40347       -1.87108       -0.41381
O         -0.88719       -0.59032       -0.97349
O         -2.63353       -2.35934       -1.03185
O         -1.49758       -1.75736        1.09163
H         -1.67649       -0.14502        1.48721
C         -0.11962       -3.08061       -0.69673
H         -0.03198       -3.22747       -1.77397
H          0.81729       -2.69794       -0.28729
H         -0.41325       -4.01136       -0.21077
S          2.76982        0.46097       -0.59018
O          4.19482        0.65636       -0.77635
O          1.96873        1.58259       -0.09069
O          2.54899       -0.78513        0.35519
H          1.85584       -0.64496        1.12474
C          2.06253       -0.10511       -2.11889
H          2.19956        0.69370       -2.84927
H          2.60644       -0.99789       -2.42890
H          1.00357       -0.31373       -1.94732
N         -2.28911        1.89861       -0.71067
C         -1.29968        2.88769       -1.14368
C         -3.66210        2.27215       -1.03897
H         -2.05151        1.00214       -1.14384
H         -1.41876        3.81046       -0.56596
H         -0.29347        2.49488       -0.97543
H         -1.40556        3.13599       -2.20917
H         -3.93731        3.18101       -0.49346
H         -3.79881        2.46386       -2.11236
H         -4.34120        1.46851       -0.74325
H         -0.13149        0.32554        3.89547
H          1.35542        1.06160        3.28239
H         -0.40360        2.39239        2.41583
H          0.23067        1.43540        1.06853
H         -2.32263        1.03595        2.48907
H         -2.03591        1.38139        0.79765
H          1.39917       -1.31820        3.04055
H          0.09300       -1.30282        2.03732
C          0.46220        0.50404        2.98658
C         -0.31162        1.38054        2.01406
N          0.89748       -0.75243        2.36144
N         -1.68047        0.88405        1.71443
