38
2msa2dma_78.log	Energy: -1003284.1381826
S          0.81813        1.85237       -0.06146
O         -0.42292        1.57721       -0.87163
O          2.02052        1.88137       -0.90031
O          0.90728        0.92331        1.09708
C          0.59128        3.48042        0.62747
H         -0.30793        3.47195        1.24425
H          1.46957        3.71683        1.22852
H          0.48973        4.18473       -0.19842
S         -3.04047       -0.44954       -0.06537
O         -2.31857       -1.24622        0.94342
O         -2.93643       -0.91746       -1.43922
O         -2.65312        1.05615        0.06205
H         -1.69029        1.27509       -0.31589
C         -4.74324       -0.37053        0.42747
H         -5.12685       -1.39089        0.40710
H         -4.79471        0.04460        1.43344
H         -5.27526        0.25717       -0.28677
N          0.38247       -1.66361        0.31614
C          0.39391       -1.76196       -1.16308
C          1.05600       -2.78660        0.99670
H          0.82178       -0.76051        0.59784
H         -0.18507       -2.63579       -1.46479
H         -0.06051       -0.85987       -1.57418
H          1.43193       -1.84068       -1.48405
H          0.56233       -3.72099        0.72456
H          2.09944       -2.78705        0.67979
H          0.99156       -2.63409        2.07440
H         -0.60190       -1.58375        0.63187
N          3.38541       -0.77958       -0.15360
C          4.34901       -1.35739       -1.07595
C          3.93528       -0.57538        1.17789
H          3.06183        0.11761       -0.51399
H          4.60108       -2.37773       -0.76053
H          3.91479       -1.41314       -2.07870
H          5.29139       -0.78739       -1.14221
H          4.14227       -1.54495        1.64960
H          4.87665        0.00020        1.17743
H          3.20296       -0.04050        1.78799
