34
2msa1a1eda_299.log	Energy: -988690.4767293
S          1.01596        1.31048       -0.16777
O          0.86159        0.83379        1.21968
O          0.53151        0.30928       -1.17380
O          2.42823        1.68469       -0.49945
H          3.07439        0.30078       -1.05705
C          0.02428        2.76945       -0.36203
H         -1.01526        2.46968       -0.21451
H          0.34537        3.49595        0.38454
H          0.17717        3.15160       -1.37125
S         -2.85806       -0.53653       -0.54769
O         -3.61354       -0.87529       -1.74080
O         -2.66165        0.87795       -0.22755
O         -1.44139       -1.25728       -0.58278
H         -0.70354       -0.60946       -0.81421
C         -3.57584       -1.36098        0.85150
H         -4.60598       -1.00939        0.92563
H         -3.55299       -2.43379        0.65948
H         -3.00141       -1.08087        1.73967
N         -1.83905        0.68673        2.77220
H         -2.42295        1.27194        2.18147
H         -0.90895        0.70419        2.35665
H         -1.78004        1.12040        3.68711
H          4.51358       -2.26300       -0.47985
H          5.06554       -0.61388       -0.07890
H          3.95324       -1.84026        1.88128
H          3.18935       -0.29996        1.47183
H          2.00771       -2.89151        1.20814
H          1.31010       -1.38901        1.16098
H          3.66903       -0.84188       -2.17937
H          2.39768       -1.21456       -1.14218
C          4.19342       -1.26326       -0.17515
C          3.36620       -1.31934        1.11733
N          3.30569       -0.72351       -1.23730
N          2.08695       -1.95616        0.83305
