42
2msa2eda_75.log	Energy: -1072768.2304162
S          2.50387        0.89090       -0.06638
O          1.33774        0.67604       -0.97583
O          3.39586       -0.27691        0.02996
O          2.03786        1.39674        1.26019
C          3.45514        2.21329       -0.79317
H          3.80965        1.87902       -1.76835
H          2.81132        3.08730       -0.89511
H          4.29396        2.42818       -0.13078
S         -2.65551       -1.00868       -0.05339
O         -2.28914       -2.38322       -0.47424
O         -1.86872        0.00878       -0.82627
O         -2.55140       -0.77166        1.40402
C         -4.36264       -0.77026       -0.50575
H         -4.63687        0.25600       -0.25975
H         -4.46145       -0.94965       -1.57631
H         -4.96470       -1.47961        0.06237
H         -2.20532        2.88097        1.45596
H         -0.58066        3.35963        2.01957
H         -0.96169        4.58230        0.01293
H          0.14644        3.27524       -0.43504
H         -1.78089        3.58744       -1.96367
H         -1.85512        2.09588       -1.29590
H          0.34336        1.36689        1.30278
H         -1.15450        0.87088        1.94886
C         -1.13735        2.85100        1.22965
C         -0.88738        3.49916       -0.12579
N         -0.69954        1.42915        1.22258
N         -1.90362        3.09173       -1.08831
H         -0.98590        0.95106        0.34036
H          1.26044       -1.34461        1.03633
H         -0.14695       -2.42674        1.15975
H          2.15890       -3.46394        1.70039
H          1.20840       -4.35073        0.49781
H          3.30716       -2.40884       -0.20498
H          3.35802       -4.04958       -0.44333
H          0.56780       -0.93297       -1.00463
H          1.15551       -2.45052       -1.36916
C          0.78173       -2.23226        0.62189
C          1.74842       -3.41560        0.68314
N          0.45218       -1.94829       -0.80563
N          2.74753       -3.24613       -0.36695
H         -0.52142       -2.23461       -1.00811
