38
2msa2dma_137.log	Energy: -1003281.7744736
S          0.68175       -1.26239       -0.28832
O         -0.51489       -1.83725       -0.96642
O          0.37565       -0.74942        1.06601
O          1.35445       -0.21798       -1.12685
H          0.66794        1.24392       -0.67732
C          1.84196       -2.59932       -0.13564
H          1.40537       -3.34473        0.52933
H          2.00334       -3.01665       -1.12982
H          2.77260       -2.18971        0.26629
S         -3.30968       -0.00724        0.14025
O         -4.73961        0.19352        0.07755
O         -2.45959        1.19708        0.13237
O         -2.90612       -0.94032       -1.05839
H         -1.93248       -1.23718       -1.02890
C         -2.87652       -0.95047        1.58387
H         -3.19249       -0.36587        2.44897
H         -3.41682       -1.89612        1.53998
H         -1.79295       -1.09805        1.58748
N          0.09097        2.04203       -0.31031
C         -0.02483        3.10394       -1.32929
C          0.63872        2.48333        0.98996
H         -0.85193        1.63317       -0.14413
H          0.95997        3.53382       -1.51821
H         -0.41996        2.66544       -2.24544
H         -0.70731        3.87532       -0.96978
H          1.64118        2.88765        0.84050
H         -0.01576        3.24673        1.41356
H          0.68005        1.61045        1.64170
N          4.17736       -0.20794        0.15062
C          5.49536        0.14916       -0.34012
C          3.80944        0.49544        1.36528
H          3.47065       -0.04595       -0.56172
H          6.25593       -0.17734        0.37788
H          5.68787       -0.36208       -1.28706
H          5.63051        1.23502       -0.49784
H          4.47326        0.19226        2.18275
H          3.88021        1.59692        1.27551
H          2.78538        0.23077        1.64470
