43
2msa1eda1tma_280.log	Energy: -1062665.4311466
S         -2.26144       -1.30162        0.44321
O         -3.06612       -1.58944       -0.73135
O         -2.47252       -0.07143        1.18740
O         -0.74817       -1.39706       -0.01776
H         -0.08811       -0.89838        0.61179
C         -2.39668       -2.66596        1.58325
H         -3.41985       -2.67237        1.96089
H         -2.17897       -3.59039        1.04870
H         -1.68833       -2.50294        2.39628
S          1.48079        1.00045        1.51326
O          2.46440        1.20670        2.56855
O          1.00062       -0.42931        1.44368
O          1.95414        1.42986        0.14884
H          2.41744        0.41023       -0.84688
C          0.03803        1.98388        1.83880
H         -0.38494        1.64672        2.78516
H          0.35791        3.02453        1.90544
H         -0.66636        1.83293        1.01406
H          4.14441       -1.86162       -1.78927
H          3.99965       -1.18516       -0.14468
H          2.77190       -3.44529       -0.54709
H          1.82394       -2.14033        0.17648
H          1.45730       -3.27401       -2.44882
H          0.41053       -2.40258       -1.50540
H          3.43598        0.29398       -2.20076
H          2.02191       -0.62404       -2.18430
C          3.44941       -1.46216       -1.04569
C          2.32417       -2.46476       -0.73795
N          2.80714       -0.25093       -1.61665
N          1.36668       -2.46945       -1.84247
N         -1.24897        2.08176       -1.25160
C         -2.68903        2.21532       -1.38187
H         -3.16146        1.23401       -1.29574
H         -3.07376        2.84571       -0.57484
H         -2.98310        2.66830       -2.34915
C         -0.57807        3.36659       -1.30751
H         -0.98281        4.02937       -0.53580
H          0.48986        3.22814       -1.11242
H         -0.70315        3.86809       -2.28762
C         -0.70925        1.16726       -2.23697
H          0.36260        1.04612       -2.05267
H         -1.18957        0.19017       -2.14410
H         -0.84701        1.53204       -3.27493
