40
2msa1dma1eda_422.log	Energy: -1038013.6599916
S          1.92763        2.00265        0.20130
O          2.53987        3.28620        0.46485
O          2.07979        0.94476        1.21642
O          2.49193        1.45372       -1.16040
H          2.27243        0.43598       -1.30196
C          0.18891        2.21214       -0.10361
H         -0.26190        2.54628        0.83146
H          0.07749        2.96695       -0.88228
H         -0.24244        1.25413       -0.40432
S         -1.29591       -1.50682        0.19285
O         -0.99199       -0.83728       -1.10345
O         -1.08562       -0.62188        1.35580
O         -0.50273       -2.77880        0.33096
H          0.88368       -2.26735        1.00386
C         -3.01074       -1.96835        0.14330
H         -3.59987       -1.04927        0.03780
H         -3.15860       -2.63253       -0.70867
H         -3.24470       -2.47932        1.07766
N         -4.23721        1.17802       -0.18858
C         -3.53497        1.48077       -1.42862
C         -3.57234        1.73477        0.98271
H         -5.18628        1.53106       -0.24074
H         -2.57108        0.96236       -1.43465
H         -4.11389        1.11050       -2.27942
H         -3.35231        2.56060       -1.57400
H         -2.61177        1.23068        1.12973
H         -3.39051        2.82158        0.90236
H         -4.17917        1.54992        1.87338
H          1.75320       -3.06338       -1.14191
H          3.33555       -2.46095       -1.66407
H          3.38355       -2.94957        0.68895
H          3.61039       -1.20100        0.44245
H          2.00177       -1.95460        2.24314
H          1.55581       -0.72077        1.25358
H          1.91134       -1.04158       -2.67361
H          0.80725       -1.00093       -1.48324
C          2.44107       -2.21154       -1.08641
C          2.90151       -2.02769        0.35596
N          1.82449       -1.00582       -1.66128
N          1.76730       -1.74025        1.27626
