29
2msa1a1ma_63.log	Energy: -929301.4378198
S         -2.20362       -0.72293        0.00451
O         -2.93224        0.44911        0.52863
O         -1.26913       -1.32765        0.99074
O         -1.50709       -0.42086       -1.28810
C         -3.41624       -1.97646       -0.37388
H         -3.93323       -2.23015        0.55182
H         -4.11376       -1.56761       -1.10517
H         -2.90018       -2.84745       -0.77804
S          2.57896       -0.23224       -0.08859
O          2.10434        0.87973       -0.89217
O          2.79222       -0.05138        1.34124
O          4.00841       -0.67825       -0.71917
H          4.64853       -0.73585        0.00465
C          1.58398       -1.66137       -0.39413
H          0.60113       -1.48738        0.06352
H          1.48557       -1.78139       -1.47271
H          2.07734       -2.51755        0.06594
N         -0.01966        1.22479        2.03836
H         -0.48225        1.73546        2.78300
H          0.95064        1.07371        2.30248
H         -0.46910        0.30688        1.97211
N         -0.46881        2.03252       -0.59970
H         -0.79938        1.12765       -1.01395
H         -0.26196        1.81129        0.42570
C         -1.51292        3.06861       -0.72070
H         -1.18680        3.97904       -0.21621
H         -1.70559        3.27653       -1.77367
H         -2.41445        2.67339       -0.25132
H          0.41660        2.27484       -1.04060
