28
2msa1dma_38.log	Energy: -918461.3387193
S          2.17947       -0.82527        0.11180
O          1.39268       -1.55339        1.12354
O          2.99292        0.29151        0.63567
O          1.30617       -0.35196       -1.02811
C          3.30762       -1.99738       -0.62264
H          3.97210       -2.35506        0.16433
H          2.72862       -2.82198       -1.03881
H          3.87431       -1.48919       -1.40287
S         -2.71880       -0.27176       -0.18004
O         -2.07289        1.01155       -0.40911
O         -3.91221       -0.62289       -0.92831
O         -3.11462       -0.28463        1.39615
H         -4.01364       -0.63337        1.47958
C         -1.51630       -1.56681       -0.26315
H         -1.05670       -1.51394       -1.25113
H         -0.74057       -1.40799        0.49190
H         -2.03668       -2.51274       -0.11248
N          0.51876        2.05198       -0.23918
C          0.44882        2.07374        1.24233
C          1.52214        2.98024       -0.80024
H          0.78257        1.06610       -0.56358
H          0.18308        3.07869        1.57553
H         -0.31232        1.36240        1.55970
H          1.42190        1.77033        1.62976
H          1.30080        4.00270       -0.48869
H          2.49961        2.66665       -0.43047
H          1.50250        2.90426       -1.88755
H         -0.41758        2.21137       -0.61538
