29
2msa1a1ma_93.log	Energy: -929297.9129736
S          2.62887       -0.67864        0.06964
O          3.82146       -1.48036        0.21632
O          2.44695        0.43326        1.02143
O          1.38989       -1.64272        0.14466
H          0.51393       -1.19048       -0.10929
C          2.53664        0.00815       -1.56889
H          3.40428        0.65870       -1.68644
H          2.57532       -0.81641       -2.28066
H          1.60664        0.57615       -1.65781
S         -1.25024        0.81344       -0.46811
O         -0.80830       -0.60378       -0.65021
O         -0.24400        1.77999       -0.97198
O         -1.62038        1.10607        0.95061
H         -0.31352        1.88736        1.60842
C         -2.73231        0.97161       -1.42999
H         -2.46574        0.81598       -2.47580
H         -3.42894        0.19836       -1.08888
H         -3.12602        1.97634       -1.27546
N          0.63600        2.35419        1.62476
H          1.35323        1.61020        1.46288
H          0.81754        2.87206        2.47911
H          0.64226        2.95681        0.80015
N         -3.63892       -1.90591       -0.10951
H         -4.08736       -2.77028       -0.39176
C         -3.82437       -1.66268        1.32074
H         -3.45952       -2.46981        1.97313
H         -3.29732       -0.74410        1.59234
H         -4.88824       -1.51179        1.52782
H         -2.64896       -1.98610       -0.32671
