42
2msa2eda_546.log	Energy: -1072743.1725951
S          2.00227       -0.97552       -1.09099
O          2.34042       -0.62501       -2.46741
O          0.63704       -0.48450       -0.66890
O          2.98823       -0.50210       -0.06705
H          2.50756        0.77557        0.69595
C          1.95381       -2.74689       -0.93664
H          1.26598       -3.12386       -1.69478
H          2.96171       -3.12282       -1.11442
H          1.59428       -2.99697        0.06545
S         -2.60452        0.04858       -0.74672
O         -2.45500        1.39849       -0.20077
O         -2.63490       -1.05446        0.20797
O         -1.53223       -0.21321       -1.86364
H         -0.59307       -0.36138       -1.45070
C         -4.07389        0.00798       -1.74352
H         -4.91240        0.20229       -1.07412
H         -3.99699        0.78458       -2.50383
H         -4.15790       -0.98022       -2.19456
H          0.69543       -1.87964        3.52162
H          1.53536       -1.24310        2.10212
H          0.32698        0.52747        3.33387
H         -0.24295        0.34597        1.65682
H         -1.98149        0.54592        3.43917
H         -2.15280       -0.73672        2.46330
H         -0.90445       -2.85051        2.18307
H         -0.46753       -2.02751        0.84892
C          0.54355       -1.45202        2.52470
C         -0.22287       -0.13432        2.64884
N         -0.10455       -2.46293        1.69374
N         -1.56222       -0.34437        3.19289
H          2.63563        3.71995        0.41553
H          3.03709        2.44170       -0.76488
H          0.83172        3.64573       -1.27049
H          0.66516        1.89776       -1.05994
H         -0.22295        3.93184        0.81165
H         -0.90412        2.48564        0.40846
H          3.03136        1.93687        1.80618
H          1.37997        1.81763        1.51983
C          2.32510        2.75791       -0.00059
C          0.89175        2.83128       -0.53955
N          2.32587        1.75185        1.09805
N         -0.02321        2.96369        0.58935
