30
2msa1eda_95.log	Energy: -953199.1797665
S          2.62223        0.02613        0.07682
O          3.92150       -0.41984        0.52951
O          1.67887        0.58028        1.05368
O          1.94217       -1.16158       -0.69702
H          0.92636       -1.03663       -0.79584
C          2.84370        1.25064       -1.20125
H          3.33550        2.11248       -0.74810
H          3.47051        0.81935       -1.98158
H          1.86250        1.52498       -1.59263
S         -1.48093       -1.67026       -0.05050
O         -1.86968       -2.93088       -0.66357
O         -2.63305       -0.79579        0.36503
O         -0.55285       -0.82487       -0.89313
H         -1.48147        1.46138       -1.24234
C         -0.58003       -2.02879        1.44612
H         -1.26724       -2.51364        2.13977
H          0.23945       -2.70156        1.18969
H         -0.18699       -1.09708        1.85503
H         -1.43894        1.56243        1.48919
H         -1.58788        3.30983        1.69578
H         -3.61378        2.30886        0.57210
H         -2.77950        3.46236       -0.50254
H         -2.60717        0.46816       -0.47868
H         -3.07136        1.49134       -1.78002
H          0.06738        3.59074        0.08772
H          0.48460        2.04735        0.51083
C         -1.46860        2.51462        0.95064
C         -2.68885        2.51106        0.02857
N         -0.26141        2.63426        0.14037
N         -2.47371        1.42745       -0.96039
