42
2msa2eda_505.log	Energy: -1072745.7375902
S          2.45714        0.58245       -0.94602
O          2.56555        1.68968        0.02407
O          1.15322        0.54579       -1.66341
O          2.78170       -0.75466       -0.35587
C          3.70889        0.87165       -2.18621
H          3.51278        1.84020       -2.64677
H          4.68051        0.87140       -1.69184
H          3.65148        0.07425       -2.92719
S         -2.39092        1.43877       -0.09859
O         -2.12139        0.01197        0.01906
O         -3.38656        2.05375        0.76400
O         -2.88248        1.66444       -1.63114
H         -3.62378        2.28643       -1.61821
C         -0.86398        2.31913       -0.04091
H         -0.42751        2.10752        0.94079
H         -0.20574        1.91779       -0.81801
H         -1.07462        3.38049       -0.17152
H          0.36309       -3.38686       -1.74442
H          0.29025       -3.91735       -0.04423
H         -1.83975       -4.34917       -1.21074
H         -2.07183       -3.19152        0.10118
H         -2.94163       -2.75233       -2.36423
H         -2.38543       -1.50174       -1.46040
H          1.31155       -1.68088       -0.32275
H         -0.06817       -1.12157       -0.96551
C         -0.10350       -3.20440       -0.77415
C         -1.61921       -3.32535       -0.89358
N          0.28092       -1.84945       -0.33008
N         -2.12880       -2.38814       -1.88503
H         -0.07595       -1.65085        0.64592
H          0.06274       -0.81285        4.30344
H          0.87705       -2.18674        3.53604
H          2.36824       -0.23766        3.62077
H          2.02102       -0.67584        1.95034
H          1.03908        1.66249        3.35121
H          1.63492        1.49193        1.82223
H         -1.38219       -1.81385        2.66308
H         -0.91357       -0.34983        2.11651
C          0.46279       -1.18985        3.34950
C          1.57385       -0.26449        2.86098
N         -0.58148       -1.29043        2.32353
N          1.04431        1.06077        2.53455
