32
2msa2ma_22.log	Energy: -953968.7501567
S          2.48034       -0.37121       -0.08633
O          2.45581        0.03794       -1.48153
O          1.51252       -1.56988        0.18074
O          2.25794        0.68625        0.91388
C          4.03049       -1.15022        0.29068
H          4.80076       -0.38495        0.19172
H          3.98916       -1.53091        1.31068
H          4.18896       -1.95496       -0.42652
S         -2.05068       -1.00881        0.10873
O         -3.03399       -0.20029       -0.62568
O         -1.76321       -0.52930        1.48597
O         -0.77948       -1.17156       -0.68264
H          0.53370       -1.40057       -0.15689
C         -2.73051       -2.64648        0.28413
H         -3.67154       -2.56075        0.82769
H         -2.89715       -3.05147       -0.71409
H         -2.01842       -3.25802        0.83850
N         -0.32171        1.81470        1.15537
H          0.66364        1.52236        1.05287
H         -0.70796        2.08141        0.18925
C         -0.47818        2.90940        2.12846
H         -1.53842        3.13736        2.24200
H         -0.06754        2.60846        3.09255
H          0.04852        3.79430        1.76953
H         -0.85385        0.96384        1.43694
N         -1.42248        2.23913       -1.35487
H         -2.15576        1.52773       -1.29530
C         -0.44791        1.85623       -2.38874
H         -0.89234        1.78084       -3.38804
H          0.36410        2.58728       -2.41865
H         -0.01875        0.88647       -2.13076
H         -1.87254        3.11637       -1.59665
