29
2msa1a1ma_23.log	Energy: -929312.0714509
S          1.74472       -0.98688        0.02637
O          0.92727       -1.26599        1.22595
O          2.82800       -0.01401        0.22658
O          0.86977       -0.56316       -1.14068
C          2.47277       -2.53089       -0.48461
H          1.67202       -3.25326       -0.64401
H          3.02753       -2.35662       -1.40639
H          3.13910       -2.86347        0.31166
S         -2.44596       -0.06428       -0.18569
O         -3.82405        0.03309       -0.61731
O         -1.69581        1.16867        0.07720
O         -1.67108       -0.92004       -1.26475
H         -0.66529       -0.81787       -1.18085
C         -2.34779       -1.07827        1.27265
H         -2.84750       -0.53913        2.07869
H         -2.86388       -2.01525        1.06316
H         -1.29141       -1.24903        1.49525
N          0.56137        1.64390        2.14312
H         -0.38958        1.82992        2.44577
H          1.20182        1.98796        2.85046
H          0.67701        0.62927        2.08293
N          0.76830        2.18367       -0.57131
H          0.78185        1.21555       -0.94846
H         -0.11038        2.60654       -0.86623
C          1.97329        2.93466       -0.97059
H          1.96557        3.91573       -0.49458
H          2.83941        2.36173       -0.63889
H          1.99987        3.04988       -2.05454
H          0.71357        2.06208        0.49180
