25
2msa1ma_83.log	Energy: -893786.1674287
S         -1.06235       -0.85986       -0.06730
O         -0.99824        0.26019       -0.98536
O         -0.00085       -1.87191       -0.12934
O         -2.43900       -1.67318       -0.33629
H         -2.20778       -2.54064       -0.70046
C         -1.32920       -0.29511        1.58286
H         -0.41568        0.23698        1.85640
H         -2.19761        0.37517        1.54463
H         -1.48802       -1.16698        2.21659
S          2.72101        0.40380        0.13064
O          4.10968        0.65315        0.44250
O          1.68612        0.62039        1.13632
O          2.62629       -1.11332       -0.36978
H          1.70411       -1.44394       -0.26561
C          2.27375        1.31706       -1.33060
H          2.37469        2.37564       -1.08769
H          2.96292        1.03934       -2.12777
H          1.24017        1.07681       -1.58529
N         -3.51838        1.76080        0.33352
H         -3.78562        2.66648        0.70341
C         -4.66114        1.09908       -0.29680
H         -5.12251        1.66813       -1.11640
H         -4.33732        0.13346       -0.69316
H         -5.42805        0.90522        0.45831
H         -2.78172        1.91714       -0.34819
