43
2msa1eda1tma_99.log	Energy: -1062682.5420435
S          1.30001        2.15191       -0.00065
O          2.12241        1.56302        1.06516
O         -0.04886        2.59505        0.39551
O          1.20280        1.22816       -1.20651
C          2.17398        3.58413       -0.60734
H          2.25525        4.29553        0.21497
H          3.16238        3.26549       -0.93903
H          1.60654        4.01255       -1.43336
S          1.80730       -2.04187       -0.30784
O          2.14391       -3.38520       -0.73379
O          0.40119       -1.71875       -0.04390
O          2.36520       -1.04475       -1.39827
H          1.95665       -0.11923       -1.29470
C          2.74379       -1.61763        1.14283
H          2.38956       -2.25481        1.95456
H          3.79472       -1.81516        0.93131
H          2.57558       -0.55812        1.35629
H         -1.64731       -0.44776       -2.83550
H         -1.50443       -1.62720       -1.52046
H         -3.85538       -1.52140       -2.37702
H         -3.76613       -0.99408       -0.69429
H         -4.04202        0.78685       -3.00246
H         -4.97822        0.69784       -1.66511
H         -0.43678        0.57044       -1.07346
H         -1.96196        1.23528       -1.05874
C         -1.96266       -0.68175       -1.81407
C         -3.48233       -0.72608       -1.71769
N         -1.44206        0.36637       -0.91562
N         -4.02953        0.59894       -2.00535
H         -1.56154        0.08891        0.11356
N         -1.91817       -0.27567        1.74870
C         -2.22937       -1.69229        1.91407
H         -3.11145       -1.95318        1.31952
H         -1.38331       -2.28713        1.56315
H         -2.44113       -1.94266        2.96727
C         -0.72879        0.08981        2.52158
H          0.11473       -0.51140        2.17880
H         -0.48799        1.13973        2.34691
H         -0.88601       -0.08048        3.59978
C         -3.05190        0.56920        2.10746
H         -2.79379        1.61725        1.93287
H         -3.91683        0.31437        1.48515
H         -3.33917        0.44779        3.16504
