37
2msa1ma1eda_517.log	Energy: -1013350.0939302
S         -1.87052       -1.39057        0.41495
O         -1.68425       -2.06413       -0.88405
O         -3.06453       -0.52237        0.50160
O         -0.62580       -0.65274        0.82939
C         -2.08351       -2.66761        1.64513
H         -2.97321       -3.24039        1.38163
H         -1.19873       -3.30476        1.63686
H         -2.20702       -2.19090        2.61760
S          2.49423       -0.56706       -0.51277
O          2.01250        0.79784       -0.65021
O          2.76002       -1.12460        0.80090
O          3.90627       -0.61563       -1.33088
H          4.54497       -1.09685       -0.78617
C          1.49341       -1.64605       -1.49561
H          1.93010       -2.64359       -1.45019
H          0.48131       -1.64250       -1.07937
H          1.49729       -1.26083       -2.51539
N          1.46720        2.67405        1.62987
H          2.10359        2.36003        0.90017
C          1.40475        1.65723        2.69121
H          2.37235        1.46493        3.16910
H          0.69374        1.97927        3.45698
H          1.04340        0.71756        2.26517
H          1.81674        3.55498        1.99109
H         -0.86171        3.32675       -1.35289
H          0.08472        1.83781       -1.61849
H         -2.15705        1.96994       -2.88774
H         -1.94467        0.51679       -1.91045
H         -4.02254        2.29423       -1.66735
H         -3.59555        1.13288       -0.57238
H         -0.08268        2.45192        0.75200
H         -1.78721        2.26341        0.58734
C         -0.84647        2.24157       -1.21808
C         -2.08121        1.60391       -1.85909
N         -0.86814        1.97407        0.23824
N         -3.27112        1.95282       -1.08365
H         -0.76830        0.94355        0.44108
