32
2msa2ma_65.log	Energy: -953964.6314606
S          1.33390        1.68742        0.18790
O          2.52166        0.80741        0.17685
O          0.87646        2.13720        1.49821
O          0.22191        1.01304       -0.61523
C          1.74648        3.13247       -0.77575
H          2.57308        3.63676       -0.27416
H          2.03674        2.81470       -1.77713
H          0.87012        3.78017       -0.81155
S         -2.77252       -0.41222       -0.06498
O         -2.56348       -0.71795        1.34385
O         -2.20719       -1.36501       -1.02683
O         -2.29968        1.04755       -0.40685
H         -1.27414        1.11937       -0.42920
C         -4.50889       -0.22669       -0.38058
H         -4.97131       -1.19156       -0.17084
H         -4.89650        0.54093        0.28855
H         -4.64490        0.05022       -1.42531
N          0.53557       -1.69125       -0.14683
H          0.41107       -0.68558       -0.39882
H         -0.27161       -2.17575       -0.54444
C          0.59555       -1.82305        1.32881
H          0.78038       -2.86563        1.58977
H          1.40944       -1.19185        1.68671
H         -0.34894       -1.48504        1.75580
H          1.45641       -1.97778       -0.57662
N          3.20125       -1.84570       -0.95505
H          3.50234       -2.01561       -1.90905
C          4.10556       -2.50041       -0.00439
H          5.15593       -2.20782       -0.12354
H          3.79890       -2.24118        1.01206
H          4.03364       -3.58601       -0.11409
H          3.20997       -0.83478       -0.80018
