38
2msa2dma_165.log	Energy: -1003278.7400136
S         -0.93148       -1.41861        0.19747
O         -0.95730       -0.33910       -0.81574
O         -0.95550       -0.96400        1.58004
O          0.26492       -2.37257       -0.09121
H          1.14916       -1.86966       -0.35088
C         -2.30899       -2.48625       -0.10569
H         -3.20206       -1.86321        0.02621
H         -2.23200       -2.86629       -1.12403
H         -2.27314       -3.29700        0.62197
S          2.99582       -0.07131       -0.12794
O          2.37272       -1.25218       -0.81195
O          2.65454        0.01098        1.29861
O          2.71541        1.19972       -0.86191
H          1.27096        1.81298       -0.33346
C          4.75012       -0.33740       -0.28009
H          4.99501       -1.26285        0.24116
H          4.99343       -0.41348       -1.33969
H          5.25898        0.51152        0.17657
N          0.28140        1.99963       -0.01681
C         -0.29223        3.13267       -0.76574
C          0.25006        2.14859        1.45632
H         -0.22572        1.13019       -0.28319
H          0.25372        4.04422       -0.51771
H         -0.20102        2.92961       -1.83289
H         -1.34498        3.24792       -0.50030
H          0.80905        3.04456        1.73123
H         -0.78680        2.23107        1.78636
H          0.71865        1.26746        1.89487
N         -4.41130        0.14425       -0.02533
C         -4.22288        0.48566       -1.42909
C         -3.75495        1.08421        0.87133
H         -5.40153        0.10469        0.18935
H         -3.16337        0.37525       -1.68058
H         -4.79484       -0.20303       -2.05690
H         -4.53258        1.51719       -1.67297
H         -2.67290        1.01214        0.72679
H         -4.06086        2.13300        0.70526
H         -3.96255        0.81773        1.91039
