38
2msa2dma_01.log	Energy: -1003303.9472007
S         -2.52367       -0.00002       -0.12482
O         -1.80885        0.00042        1.17106
O         -2.26929       -1.24157       -0.90747
O         -2.27005        1.24144       -0.90789
C         -4.27502       -0.00050        0.21948
H         -4.51036       -0.89738        0.79285
H         -4.51090        0.89639        0.79263
H         -4.80833       -0.00078       -0.73132
S          2.52353        0.00004        0.12504
O          1.80793       -0.00024       -1.17044
O          2.27026       -1.24149        0.90812
O          2.26971        1.24155        0.90794
C          4.27467        0.00039       -0.22035
H          4.50978        0.89749       -0.79349
H          4.80857        0.00021        0.73012
H          4.51008       -0.89629       -0.79401
N         -0.00023        2.44951       -0.00028
C          0.56455        3.24054       -1.11033
C         -0.56432        3.24048        1.11018
H         -0.76583        1.84694       -0.37808
H          1.34455        3.89867       -0.72397
H          0.99228        2.54268       -1.83059
H         -0.22990        3.82600       -1.57612
H          0.23069        3.82493        1.57630
H         -1.34370        3.89955        0.72416
H         -0.99269        2.54262        1.83007
H          0.76497        1.84638        0.37732
N          0.00052       -2.44952       -0.00006
C         -0.56423       -3.24030        1.11020
C          0.56457       -3.24075       -1.11036
H         -0.76469       -1.84640       -0.37773
H          0.23016       -3.82595        1.57586
H         -0.99160       -2.54226        1.83050
H         -1.34451       -3.89822        0.72405
H          1.34400       -3.89968       -0.72423
H         -0.23044       -3.82536       -1.57628
H          0.99284       -2.54303       -1.83045
H          0.76615       -1.84691        0.37761
