34
2msa1a1eda_331.log	Energy: -988687.9938375
S         -2.59118       -0.94888        0.15549
O         -3.15882       -0.03017       -0.85081
O         -2.55524       -0.45567        1.52348
O         -1.18237       -1.43787       -0.31307
H         -0.54183       -0.61745       -0.44403
C         -3.49440       -2.47216        0.07819
H         -3.03941       -3.17093        0.77978
H         -4.52097       -2.24635        0.36778
H         -3.45023       -2.85086       -0.94229
S          0.80901        1.52506        0.33037
O          2.20912        1.81462        0.02756
O          0.17986        0.59562       -0.68927
O         -0.06325        2.73914        0.44362
H         -1.24209        2.63420       -0.53205
C          0.72826        0.68818        1.89508
H          1.40851       -0.16845        1.83699
H          1.07476        1.39480        2.65058
H         -0.30651        0.39678        2.08441
N         -1.99348        2.45336       -1.28948
H         -1.50730        2.35370       -2.17807
H         -2.66505        3.21429       -1.34062
H         -2.47441        1.55199       -1.08396
H          4.78970       -1.97800       -0.23042
H          3.56581       -2.91642        0.65388
H          2.90247       -2.68871       -1.64339
H          1.77728       -1.77175       -0.62567
H          2.64413       -0.64799       -2.69361
H          2.88301        0.22830       -1.35090
H          4.21571       -0.99509        1.92133
H          3.70967        0.01807        0.74850
C          3.76288       -1.95474        0.16568
C          2.80972       -1.79795       -1.01184
N          3.55192       -0.89938        1.16005
N          3.15846       -0.63174       -1.82011
