37
2msa1ma1eda_69.log	Energy: -1013367.3578891
S          1.58406        1.45166       -0.62450
O          0.57250        2.49713       -0.81868
O          1.53416        0.33469       -1.60633
O          1.55294        0.91212        0.78526
H          1.01813       -1.07915        0.84692
C          3.18821        2.20703       -0.82317
H          3.24051        2.61530       -1.83279
H          3.28775        3.00073       -0.08271
H          3.95413        1.44404       -0.68054
S         -2.82678       -0.54978       -0.38124
O         -4.05027       -1.33402       -0.49056
O         -1.77486       -1.16305        0.50293
O         -3.03065        0.87735        0.02448
H         -1.79653        1.46830        0.82011
C         -2.08638       -0.46643       -2.00951
H         -1.91616       -1.48457       -2.36406
H         -2.79083        0.04265       -2.66777
H         -1.15007        0.09326       -1.95488
N         -1.08543        1.80313        1.54408
H         -0.13902        1.48353        1.27181
C         -1.48267        1.27032        2.86467
H         -0.74557        1.54703        3.61880
H         -2.46361        1.66528        3.12756
H         -1.55132        0.18655        2.76963
H         -1.06583        2.82039        1.51182
H          3.31485       -2.14335       -0.79206
H          3.59321       -3.53537        0.26178
H          1.29894       -3.55708       -0.74689
H          1.26232       -3.49854        1.03459
H          0.97075       -1.13937       -0.76193
H         -0.28978       -1.79253        0.15280
H          4.27019       -1.84177        1.62931
H          3.11904       -0.77459        1.14316
C          3.03096       -2.60243        0.16693
C          1.54708       -2.95620        0.13097
N          3.30973       -1.75763        1.32309
N          0.75409       -1.71098        0.08015
