37
2msa1ma1eda_516.log	Energy: -1013351.2653084
S          0.09275       -2.06432        0.12278
O         -0.94279       -3.01660       -0.26699
O          0.38166       -1.03128       -0.94118
O          1.38888       -2.67849        0.54641
H          2.56151       -1.67810        0.06750
C         -0.50029       -1.15587        1.53853
H         -1.43198       -0.65392        1.27057
H         -0.67538       -1.87738        2.33730
H          0.26341       -0.43160        1.82608
S          0.97634        2.24404       -0.02971
O          1.66203        3.39865       -0.56947
O          1.76310        1.28818        0.77647
O          0.31142        1.45642       -1.21705
H          0.27138        0.44351       -1.04271
C         -0.40990        2.76768        0.94447
H         -0.01508        3.18903        1.86987
H         -0.93180        3.53322        0.36890
H         -1.08364        1.92323        1.13078
N          3.13327       -0.87751       -0.33852
H          2.88700       -0.85652       -1.32804
C          4.58525       -1.00326       -0.10487
H          5.10379       -0.14530       -0.53269
H          4.76172       -1.03802        0.96961
H          4.94721       -1.92426       -0.56118
H          2.73399       -0.01287        0.07736
H         -4.74716        1.11715       -0.56603
H         -3.21234        1.91773       -0.94082
H         -3.41789       -0.25833       -2.10469
H         -2.03873       -0.21962       -1.01734
H         -4.50836       -1.69420       -0.57878
H         -2.94367       -2.16848       -0.38066
H         -3.75650        1.86388        1.47146
H         -3.58910        0.23414        1.41619
C         -3.65574        1.06155       -0.41911
C         -3.13158       -0.22999       -1.04327
N         -3.27617        1.10742        0.99505
N         -3.58919       -1.38914       -0.27965
