32
2msa2ma_167.log	Energy: -953957.1099188
S          1.46257        0.71979        0.69946
O          0.99275       -0.71399        0.65921
O          0.55577        1.58166        1.46708
O          1.71507        1.22846       -0.68477
H          0.31618        1.70957       -1.36434
C          3.04759        0.65617        1.49731
H          2.88366        0.33511        2.52634
H          3.66530       -0.06757        0.95722
H          3.47376        1.65917        1.46806
S         -2.43052       -0.76163        0.10241
O         -1.89773       -0.54366       -1.25903
O         -3.03032        0.40263        0.73432
O         -1.34905       -1.43136        0.99455
H         -0.36655       -1.06226        0.85651
C         -3.62586       -2.07111        0.01963
H         -4.46097       -1.70535       -0.57815
H         -3.15982       -2.93850       -0.44615
H         -3.94937       -2.29560        1.03589
N          3.59088       -2.07332       -0.33235
H          3.97284       -3.00814       -0.24356
C          3.53318       -1.66087       -1.73340
H          2.95171       -2.33243       -2.38358
H          3.08108       -0.66680       -1.78784
H          4.54780       -1.59012       -2.13772
H          2.65427       -2.07771        0.06396
N         -0.67973        1.90542       -1.67533
H         -0.67763        2.19225       -2.65117
C         -1.31514        2.91803       -0.79252
H         -2.37204        3.00531       -1.04188
H         -1.19713        2.57895        0.23647
H         -0.80641        3.87267       -0.92441
H         -1.17818        0.99276       -1.59881
