37
2msa1ma1eda_524.log	Energy: -1013350.2260711
S         -1.45148       -1.66643        0.38951
O         -2.78827       -1.02832        0.45826
O         -0.64642       -1.51111        1.62117
O         -0.68924       -1.22903       -0.82179
C         -1.73842       -3.41719        0.17517
H         -2.30076       -3.77452        1.03814
H         -2.30628       -3.56456       -0.74365
H         -0.77242       -3.91955        0.11431
S          2.87700       -0.04105       -0.40884
O          1.94131        0.57690       -1.33796
O          3.38172        0.72335        0.71636
O          4.16300       -0.50054       -1.29048
H          3.98299       -0.27815       -2.21501
C          2.27630       -1.60194        0.16933
H          1.43420       -1.41194        0.84394
H          1.92504       -2.16899       -0.69199
H          3.09963       -2.09656        0.68528
N         -3.34009        1.17190       -1.48954
H         -3.53150        0.98519       -2.46848
C         -4.42079        1.96154       -0.89388
H         -5.40925        1.49391       -0.98513
H         -4.21436        2.09761        0.17101
H         -4.46137        2.95002       -1.36033
H         -3.27592        0.26668       -1.01260
H         -1.55091        2.80739        0.93613
H         -1.71838        1.06527        1.27578
H          0.03773        2.09180        2.73321
H          0.71955        0.89166        1.65289
H          1.11695        3.76099        1.52055
H          2.12422        2.53349        1.08072
H         -1.64253        1.63509       -1.08591
H          0.01339        2.14863       -0.83240
C         -1.04435        1.83798        0.90113
C          0.26255        1.88484        1.67981
N         -0.75428        1.54395       -0.52477
N          1.16323        2.85792        1.06504
H         -0.46905        0.54860       -0.65620
