42
2msa2eda_254.log	Energy: -1072755.9307411
S         -1.99167       -1.27963        0.66522
O         -0.87238       -2.14717        1.16423
O         -2.11461       -1.30265       -0.80271
O         -1.92687        0.08939        1.23719
C         -3.45881       -2.03099        1.34574
H         -3.53481       -3.04524        0.95372
H         -3.36640       -2.04053        2.43163
H         -4.31689       -1.43425        1.03512
S          1.81882       -1.45571       -0.86933
O          3.24798       -1.61838       -1.07150
O          1.21672       -0.18674       -1.28108
O          1.54256       -1.70276        0.66424
H          0.53765       -1.83919        0.86630
C          0.92284       -2.76739       -1.67037
H          1.12773       -2.68088       -2.73806
H          1.28591       -3.71788       -1.27992
H         -0.14119       -2.62279       -1.46733
H         -0.54586        2.45465       -2.22466
H         -0.91263        0.76435       -1.79899
H         -2.99943        1.96652       -2.47245
H         -3.04535        1.43901       -0.78685
H         -2.64436        4.18901       -1.71089
H         -3.66560        3.62696       -0.56417
H          0.54492        2.06715       -0.16149
H         -0.87841        2.89961        0.18924
C         -1.07992        1.80520       -1.52364
C         -2.56531        2.13595       -1.47892
N         -0.50413        2.02000       -0.17802
N         -2.74834        3.50011       -0.97370
H         -0.81371        1.27078        0.46925
H          3.15098        0.64676        0.60328
H          4.13957        2.07432        0.86368
H          3.11358        1.54604        2.93235
H          2.31759        3.01136        2.34417
H          1.17262        0.32315        2.02021
H          0.65476        1.45052        3.08271
H          2.67562        3.31305       -0.42988
H          2.53166        1.84761       -1.15841
C          3.10160        1.71997        0.80609
C          2.43171        1.93531        2.15915
N          2.36304        2.35684       -0.29549
N          1.10626        1.32502        2.18378
