40
2msa1dma1eda_01.log	Energy: -1038038.7182331
S         -2.71419       -0.53909        0.20921
O         -2.57906        0.65870        1.08467
O         -2.76748       -1.82305        0.92333
O         -1.66331       -0.52983       -0.86250
C         -4.27374       -0.34020       -0.63635
H         -5.06212       -0.33224        0.11647
H         -4.25503        0.60232       -1.18380
H         -4.40270       -1.18034       -1.31893
S          2.90388       -0.04355       -0.06628
O          2.91407        1.18764       -0.86720
O          2.72537       -1.29739       -0.85369
O          1.91733        0.01185        1.06401
C          4.50766       -0.19001        0.70374
H          5.25367       -0.26655       -0.08757
H          4.67863        0.70253        1.30593
H          4.51328       -1.08445        1.32680
N          0.27860       -2.39531       -0.32633
C          0.29868       -2.77053        1.10658
C         -0.11180       -3.49525       -1.22852
H         -0.40806       -1.61922       -0.46959
H          0.95223       -3.63560        1.23480
H          0.69640       -1.92152        1.66245
H         -0.72107       -2.99109        1.42378
H          0.61181       -4.30775       -1.14438
H         -1.10703       -3.84327       -0.94776
H         -0.12831       -3.11954       -2.25166
H          1.21869       -2.01532       -0.59041
H          0.91250        2.44169       -0.96751
H         -0.55212        1.47631       -1.25457
H         -0.96797        3.90087       -1.78626
H         -1.98697        3.33146       -0.45623
H          0.42156        4.97545       -0.15573
H         -1.08986        5.27326        0.40012
H          0.66870        1.14247        0.91970
H          0.03516        2.66070        1.34081
C         -0.12393        2.28367       -0.65879
C         -0.95444        3.55643       -0.74370
N         -0.10388        1.83046        0.75637
N         -0.42135        4.53854        0.20304
H         -1.02008        1.38823        0.99813
