37
2msa1ma1eda_148.log	Energy: -1013363.3391177
S          2.18173       -0.71851       -0.57117
O          1.89076       -1.90341        0.24388
O          2.84641        0.40236        0.11422
O          0.93259       -0.22735       -1.29427
C          3.26945       -1.23595       -1.88792
H          4.19141       -1.59585       -1.43031
H          2.77907       -2.03615       -2.44252
H          3.46732       -0.37913       -2.53180
S         -1.82931       -1.39836        0.54070
O         -3.27349       -1.53344        0.51764
O         -1.22916       -0.31028        1.31442
O         -1.37654       -1.26962       -0.97585
H         -0.41527       -0.94938       -1.07123
C         -1.07624       -2.91744        1.06591
H         -1.34622       -3.06384        2.11240
H         -1.47241       -3.72166        0.44614
H          0.00457       -2.80570        0.94600
N          1.66549        2.50207        1.84048
H          2.36675        1.96478        1.32756
C          1.18100        1.69165        2.96733
H          1.97026        1.41789        3.67712
H          0.40012        2.23766        3.50411
H          0.73908        0.77159        2.57650
H          2.10107        3.35652        2.17063
H         -1.19448        3.76193       -0.63509
H          0.02403        3.15829       -1.78133
H         -2.28187        2.77437       -2.67374
H         -1.45874        1.24512       -2.35990
H         -3.70500        2.31320       -0.87432
H         -3.25122        0.74616       -1.10929
H          0.40416        2.41014        0.62545
H         -1.04527        1.53189        0.43405
C         -0.79467        2.86676       -1.11920
C         -1.89809        2.12404       -1.87728
N         -0.26338        1.97139       -0.07418
N         -2.91478        1.68475       -0.93285
H          0.25950        1.18413       -0.51056
