32
2msa2ma_03.log	Energy: -953979.7336620
S          2.54223       -0.03136       -0.26677
O          2.37876       -1.26914       -1.04356
O          1.76146       -0.06384        1.01443
O          2.25894        1.22140       -1.02384
H          0.79685        1.93075       -0.64841
C          4.26069        0.07635        0.20153
H          4.51189       -0.81164        0.78187
H          4.85334        0.11740       -0.71272
H          4.40400        0.97984        0.79416
S         -2.66391       -0.00145       -0.08737
O         -2.42644        1.45609        0.13022
O         -2.56145       -0.79996        1.15902
O         -1.81028       -0.53960       -1.17799
H         -0.44959       -1.67809       -0.42905
C         -4.35573       -0.12907       -0.63586
H         -4.99838        0.27834        0.14468
H         -4.45913        0.43919       -1.56024
H         -4.57673       -1.18296       -0.80565
N         -0.13321       -1.99897        0.50037
H          0.58052       -1.29965        0.80950
C          0.42450       -3.36396        0.47953
H          0.71660       -3.64574        1.49134
H         -0.32685       -4.05979        0.10583
H          1.29776       -3.35798       -0.17239
H         -0.97745       -1.87805        1.08140
N          0.01671        2.50814       -0.24092
H         -0.11928        3.32230       -0.83585
C          0.37219        2.89457        1.14508
H         -0.47763        3.39507        1.60841
H          0.61687        1.97947        1.68369
H          1.24420        3.54857        1.12755
H         -0.89250        1.97673       -0.22185
