37
2msa1ma1eda_340.log	Energy: -1013357.1407423
S         -0.84505       -1.57272       -0.51407
O         -2.02955       -2.34048       -0.85689
O         -0.64154       -0.31025       -1.24406
O          0.40864       -2.48932       -0.69829
H          1.28986       -1.96396       -0.64626
C         -0.86922       -1.21018        1.22436
H         -1.67925       -0.49647        1.38594
H         -1.05136       -2.14685        1.75172
H          0.09608       -0.77658        1.50033
S          2.93000       -0.01763        0.23885
O          2.63636       -1.25604       -0.54145
O          1.96244        0.19392        1.34379
O          3.06608        1.19009       -0.61630
H          1.48608        2.05460       -0.48786
C          4.52934       -0.29637        0.97158
H          4.46128       -1.17649        1.61110
H          5.24667       -0.45820        0.16699
H          4.79287        0.58732        1.55289
N         -4.02488       -0.02457        0.12622
H         -4.70226        0.45314       -0.46024
C         -4.71303       -0.72091        1.21639
H         -5.46953       -1.44229        0.88114
H         -3.97811       -1.26572        1.81525
H         -5.19791        0.00915        1.87095
H         -3.56014       -0.70673       -0.47075
H         -0.07602        4.02925       -0.18238
H         -0.12940        3.32888       -1.81354
H         -2.44012        3.66035       -0.85121
H         -2.08385        1.98059       -1.26532
H         -2.38867        3.04107        1.40432
H         -2.77305        1.55767        0.76289
H          0.34407        1.86666        0.71122
H          0.13161        1.12233       -0.72037
C         -0.35843        3.14608       -0.76158
C         -1.83377        2.78863       -0.57007
N          0.46566        2.01110       -0.29470
N         -2.07318        2.30504        0.78395
