40
2msa1dma1eda_108.log	Energy: -1038027.2678357
S          2.70897       -0.54743        0.36683
O          4.09295       -0.97427        0.20664
O          1.71755       -1.41623       -0.36069
O          2.45720        0.89113        0.01992
H          1.42440        1.09625       -1.19248
C          2.28491       -0.68011        2.09768
H          2.45424       -1.71254        2.40817
H          2.94461       -0.01372        2.65427
H          1.23918       -0.39143        2.23081
S         -1.60088        1.11147        1.15292
O         -2.89248        1.58648        1.63497
O         -1.57112        0.88883       -0.33602
O         -1.08184       -0.09906        1.86943
H         -0.87487       -1.51050        1.10395
C         -0.37825        2.37640        1.46858
H         -0.69407        3.28713        0.95730
H         -0.34591        2.54692        2.54525
H          0.59452        2.02783        1.10987
N          0.62730        1.22551       -1.87729
C          0.75322        0.23497       -2.96569
C          0.57913        2.62880       -2.32739
H         -0.22942        1.03119       -1.30395
H          1.61466        0.49087       -3.58514
H          0.91848       -0.74191       -2.51001
H         -0.15600        0.23729       -3.57020
H          1.50238        2.87204       -2.85555
H         -0.27909        2.77325       -2.98580
H          0.48033        3.27268       -1.45325
H         -3.07667       -1.58117        0.55615
H         -3.42132       -3.06721       -0.34044
H         -1.27233       -3.02290       -1.43451
H         -1.16794       -1.26293       -1.23958
H         -0.76695       -3.20138        0.93427
H          0.36827       -2.15439        0.20212
H         -4.62836       -1.43111       -1.44301
H         -3.39307       -0.35614       -1.40862
C         -2.97092       -2.07203       -0.42325
C         -1.48458       -2.18894       -0.76296
N         -3.62061       -1.34396       -1.50477
N         -0.64150       -2.31331        0.45469
