35
2msa1a1tma_44.log	Energy: -978625.1158105
S          0.94049        1.06230       -0.41747
O          0.49563        2.18710        0.43828
O          0.70726       -0.27168        0.18194
O          2.38326        1.21032       -0.82580
H          3.18645        0.07535       -0.19145
C         -0.01012        1.14215       -1.91966
H         -1.06240        0.97703       -1.66339
H          0.14052        2.12582       -2.36544
H          0.34846        0.35955       -2.58926
S         -3.32857       -0.70850        0.00882
O         -4.67302       -1.21364       -0.25744
O         -2.98373       -0.58864        1.46264
O         -3.00277        0.57955       -0.70156
H         -2.55279        1.80823        0.48485
C         -2.17009       -1.89990       -0.65306
H         -2.35185       -2.85268       -0.15403
H         -2.35721       -1.99307       -1.72395
H         -1.15807       -1.54216       -0.45357
N         -2.07505        1.90668        1.40909
H         -2.26754        0.94750        1.79147
H         -2.47463        2.64041        1.98390
H         -1.06260        2.05217        1.22236
N          3.75452       -0.73306        0.24507
C          3.30213       -1.97617       -0.42479
H          2.22648       -2.06511       -0.27046
H          3.51187       -1.89336       -1.49192
H          3.83331       -2.83258       -0.00228
C          5.18234       -0.44449       -0.00991
H          5.34125       -0.36916       -1.08607
H          5.43754        0.50671        0.45798
H          5.80057       -1.24412        0.40529
C          3.43498       -0.74917        1.69395
H          3.72568        0.20905        2.12604
H          2.35766       -0.88137        1.79848
H          3.98177       -1.56289        2.17696
