40
2msa1dma1eda_156.log	Energy: -1038022.6140372
S          0.85816        1.93006        0.78752
O          0.60724        2.10312       -0.65504
O          2.10700        1.17872        1.08802
O         -0.31183        1.34086        1.51246
C          1.08918        3.55042        1.49500
H          1.94967        4.01322        1.01158
H          0.18412        4.12990        1.31171
H          1.26222        3.43198        2.56452
S         -2.58944        0.03578       -0.85475
O         -3.92812       -0.47121       -1.07675
O         -1.46774       -0.91099       -0.86972
O         -2.60057        0.80624        0.51953
H         -1.66513        1.01517        0.86369
C         -2.22588        1.31142       -2.03837
H         -2.19663        0.83928       -3.02119
H         -3.02590        2.05024       -1.99066
H         -1.25825        1.74766       -1.77626
N         -0.19997       -2.57913        1.19846
C         -0.38575       -1.92770        2.49701
C         -0.36891       -4.02732        1.25674
H         -0.86975       -2.17996        0.53881
H          0.38896       -2.27086        3.19145
H         -0.29319       -0.84538        2.37507
H         -1.36673       -2.15088        2.93986
H          0.41334       -4.46337        1.88726
H         -1.34356       -4.32190        1.67231
H         -0.27792       -4.45149        0.25329
H          1.45744       -2.01657       -1.83818
H          0.80154       -0.43772       -1.36932
H          2.66678       -0.16167       -3.02073
H          3.04853        0.56990       -1.45968
H          4.16058       -1.92508       -2.51163
H          4.93217       -0.67311       -1.79901
H          1.20728       -1.94564        0.53823
H          2.90223       -1.84176        0.11322
C          1.68950       -1.07024       -1.34011
C          2.89287       -0.38471       -1.97032
N          1.99611       -1.36820        0.08019
N          4.08172       -1.22254       -1.78423
H          2.08377       -0.46140        0.59272
