28
2msa1dma_81.log	Energy: -918445.9378360
S          2.28881        0.37027       -0.04598
O          3.39625        1.29245        0.05473
O          1.14445        0.68431       -0.89740
O          1.75294        0.13170        1.44153
H          0.84024       -0.24303        1.41152
C          2.89493       -1.23900       -0.50540
H          3.32435       -1.14310       -1.50351
H          3.65906       -1.53085        0.21467
H          2.05830       -1.94035       -0.51116
S         -1.18276       -1.62784       -0.01386
O         -0.29698       -2.61578       -0.59539
O         -0.73796       -0.93152        1.20084
O         -2.57993       -2.33735        0.39263
H         -2.63362       -2.36969        1.35913
C         -1.74701       -0.49494       -1.24294
H         -0.84462       -0.10579       -1.71680
H         -2.36248       -1.05573       -1.94689
H         -2.28818        0.32166       -0.74426
N         -2.35897        2.37296        0.02978
C         -1.67243        3.03198       -1.07595
C         -1.57312        2.40247        1.25819
H         -3.25503        2.82115        0.18868
H         -0.73329        2.50575       -1.27586
H         -2.29209        2.98786       -1.97666
H         -1.42685        4.08707       -0.87167
H         -0.64294        1.85091        1.09742
H         -1.30880        3.42277        1.58173
H         -2.12236        1.90806        2.06358
