34
2msa1a1eda_50.log	Energy: -988710.3676500
S         -1.63773       -1.71231       -0.17549
O         -0.68689       -2.77667        0.25299
O         -1.15971       -0.91389       -1.32097
O         -2.06966       -0.85207        0.96896
H         -1.33709        0.66953        0.95878
C         -3.09669       -2.59089       -0.70511
H         -2.81269       -3.24895       -1.52645
H         -3.47407       -3.16728        0.13941
H         -3.83440       -1.85918       -1.03482
S          2.74543        0.46739       -0.17286
O          3.70029        1.56882       -0.13892
O          1.67329        0.56454        0.89280
O          3.34156       -0.90105       -0.13049
H          2.38478       -1.90962        0.77453
C          1.86449        0.55544       -1.72640
H          1.47575        1.56856       -1.84236
H          2.58047        0.34210       -2.52078
H          1.05125       -0.17418       -1.72036
N          1.63376       -2.16941        1.47059
H          1.94096       -2.88454        2.12193
H          0.74556       -2.45248        0.97679
H          1.45599       -1.27962        1.94478
H         -0.43848        2.94579       -0.71082
H         -1.15888        1.39610       -1.23309
H         -2.85515        3.25209       -1.27944
H         -3.28498        1.98448       -0.12533
H         -2.19270        4.61265        0.56424
H         -3.51034        3.85680        1.17162
H          0.22258        1.28555        0.83724
H         -1.01959        2.21822        1.56553
C         -1.18054        2.17799       -0.47164
C         -2.56918        2.78779       -0.32680
N         -0.79558        1.55763        0.81642
N         -2.57558        3.70651        0.81256
