28
2msa1dma_08.log	Energy: -918474.4445934
S          1.87822       -0.95573        0.00175
O          2.03519       -0.41229       -1.35560
O          0.58802       -1.69847        0.18287
O          2.06243        0.08207        1.06018
C          3.15201       -2.16967        0.27326
H          3.04102       -2.94601       -0.48384
H          4.11689       -1.67175        0.17713
H          3.02606       -2.58301        1.27385
S         -2.43345       -0.30190       -0.11316
O         -3.75602       -0.19566       -0.68758
O         -1.73767        0.94950        0.23530
O         -1.54226       -1.14501       -1.09302
H         -0.63108       -1.35106       -0.67562
C         -2.47325       -1.29324        1.36441
H         -3.04216       -0.73960        2.11189
H         -2.96378       -2.23630        1.12373
H         -1.44330       -1.45579        1.68706
N          0.68780        2.20968        0.10044
C          1.20444        2.66601       -1.20893
C          0.50097        3.27976        1.10053
H         -0.21976        1.72115       -0.02521
H          2.15596        3.17718       -1.05489
H          1.36154        1.78506       -1.83175
H          0.48199        3.34597       -1.66314
H          1.46134        3.75781        1.29833
H         -0.21045        4.01365        0.71891
H          0.11219        2.83467        2.01610
H          1.32017        1.46404        0.49407
