37
2msa1ma1eda_397.log	Energy: -1013353.7091879
S         -3.04356       -0.38970        0.23834
O         -3.67981        0.48644        1.22545
O         -1.63411       -0.75224        0.56500
O         -3.11010        0.14702       -1.16718
H         -1.66998        0.63307       -1.55122
C         -3.96366       -1.91816        0.19876
H         -4.99462       -1.68415       -0.06755
H         -3.51207       -2.57803       -0.54206
H         -3.91744       -2.36343        1.19290
S          2.12884       -1.48279       -0.22530
O          2.03565       -2.76841       -0.88460
O          1.65622       -0.28941       -0.96038
O          3.61098       -1.20690        0.19509
H          3.84034       -0.15516        0.13832
C          1.26561       -1.54820        1.32430
H          0.20431       -1.69791        1.11341
H          1.68410       -2.37355        1.90047
H          1.41292       -0.59451        1.83327
N          4.06918        1.29292        0.03798
H          5.05518        1.53603        0.06132
C          3.31344        2.00749        1.08272
H          3.46972        3.09090        1.04606
H          2.24479        1.80198        0.95931
H          3.63267        1.64017        2.06105
H          3.71421        1.53480       -0.88333
H          0.56207        2.64169       -1.39406
H         -1.07904        3.01641       -1.98920
H         -0.82731        3.68822        0.33426
H         -2.05678        2.42781        0.18791
H         -0.35765        2.21392        2.01587
H         -0.58220        0.88910        1.11207
H         -0.44688        0.86206       -2.71015
H         -0.00975        0.36600       -1.21089
C         -0.49908        2.39602       -1.30150
C         -0.97702        2.62349        0.12762
N         -0.66888        0.97908       -1.72361
N         -0.19995        1.83781        1.08636
