42
2msa2eda_369.log	Energy: -1072751.8712443
S         -0.78164        2.15718       -0.60763
O         -1.36634        1.37015       -1.70060
O          0.71030        2.11029       -0.55495
O         -1.34457        1.80902        0.73953
C         -1.20557        3.86544       -0.88446
H         -2.29271        3.94179       -0.91280
H         -0.79615        4.45893       -0.06725
H         -0.77362        4.16770       -1.83861
S         -2.34945       -1.48892        0.78820
O         -3.14496       -2.52290        1.41239
O         -0.91396       -1.42660        1.10792
O         -3.00979       -0.09966        1.12735
H         -2.37484        0.67279        0.94143
C         -2.49306       -1.60071       -0.97988
H         -1.99079       -2.51979       -1.28505
H         -3.55493       -1.64212       -1.22277
H         -2.02157       -0.71812       -1.42077
H          2.28479       -1.19289        2.43758
H          2.22546       -1.31656        0.66776
H          4.46163       -0.50583        1.39549
H          3.61059        0.71372        0.44621
H          4.03785        0.77107        3.34202
H          4.21743        1.97538        2.24969
H          0.27564       -0.19452        1.53986
H          1.26284        0.95819        2.29761
C          2.32737       -0.62169        1.50566
C          3.61037        0.18743        1.40634
N          1.17660        0.31389        1.50904
N          3.65447        1.16957        2.49191
H          1.14425        0.91919        0.65888
H          2.06697       -2.57634       -3.17802
H          0.92948       -3.21679       -1.98449
H          0.29155       -0.94784       -2.73381
H          0.60743       -1.00926       -1.00331
H          2.45735        0.04750       -3.01496
H          1.72166        0.85582       -1.79692
H          3.18905       -3.56934       -1.24762
H          3.47777       -1.95185       -1.29500
C          1.70582       -2.45994       -2.14103
C          1.08800       -1.07529       -1.98554
N          2.76016       -2.65620       -1.14735
N          2.12265       -0.04252       -2.05989
