32
2msa1a1dma_91.log	Energy: -953957.8463702
S          1.97429        1.39033        0.00358
O          2.73022        2.54931        0.42369
O          0.75387        1.21348        0.97921
O          2.69056        0.10345       -0.09942
H          2.46798       -1.50634        0.34670
C          1.21214        1.70314       -1.56901
H          0.63759        2.62547       -1.47793
H          2.01405        1.82045       -2.29879
H          0.57002        0.85184       -1.80622
S         -0.71966       -1.75884       -0.19844
O         -0.06543       -3.08759       -0.39959
O         -0.65559       -0.87301       -1.36679
O         -0.12604       -1.12444        1.03978
H          0.38171        0.24574        0.98196
C         -2.42985       -2.04750        0.17263
H         -2.87927       -2.53633       -0.69227
H         -2.49003       -2.68288        1.05613
H         -2.86810       -1.05905        0.35032
N          2.33013       -2.50648        0.62362
H          1.44963       -2.86525        0.14158
H          2.15429       -2.52834        1.62604
H          3.15044       -3.05981        0.39194
N         -2.60395        1.31933        0.32242
C         -3.32709        2.18436        1.24021
C         -2.85129        1.64323       -1.07415
H         -1.60865        1.38713        0.51001
H         -4.40383        2.01861        1.12274
H         -3.05890        1.93781        2.27092
H         -3.13418        3.25924        1.07734
H         -3.90593        1.45799       -1.30806
H         -2.63656        2.69802       -1.32391
H         -2.24187        0.99306       -1.70626
