37
2msa1ma1eda_367.log	Energy: -1013355.9872293
S         -3.67109       -0.18331       -0.22308
O         -2.88761       -0.33922        1.02902
O         -3.44254       -1.23356       -1.22090
O         -3.49459        1.21113       -0.77410
H         -2.08096        1.71988       -0.43911
C         -5.39640       -0.25987        0.23839
H         -5.59603        0.52076        0.97255
H         -5.99444       -0.10950       -0.66066
H         -5.58443       -1.24614        0.66371
S          1.19514       -0.88805        0.11579
O          0.91160        0.26020       -0.80308
O          1.45848       -0.44286        1.50076
O          2.34481       -1.70732       -0.41037
H          3.59081       -1.21180        0.37749
C         -0.22907       -1.94169        0.09931
H         -1.07221       -1.40718        0.54746
H         -0.45784       -2.19202       -0.93663
H          0.01699       -2.83425        0.67505
N         -1.08923        2.03606       -0.15121
H         -0.40435        1.32108       -0.48019
C         -0.99110        2.16497        1.32241
H          0.04823        2.32726        1.60888
H         -1.62025        2.99193        1.65286
H         -1.36098        1.23401        1.75171
H         -0.87843        2.91136       -0.62410
H          6.01151        0.57073        0.32259
H          5.74790       -0.87187       -0.69545
H          5.09084        1.31935       -1.83556
H          3.77822        0.13932       -1.73261
H          3.82521        2.69941       -0.53075
H          2.60094        1.57676       -0.56070
H          4.80931       -1.09127        1.59401
H          3.79137        0.18906        1.23749
C          5.25934       -0.04020       -0.18332
C          4.41525        0.80631       -1.14385
N          4.34015       -0.59120        0.84361
N          3.58972        1.72952       -0.37233
