42
2msa2eda_235.log	Energy: -1072755.3641503
S         -0.13744       -2.43425       -0.26687
O         -0.36043       -2.91471        1.09928
O          1.30938       -2.17331       -0.57012
O         -0.96765       -1.24699       -0.62473
C         -0.62613       -3.73393       -1.38602
H         -1.68008       -3.95183       -1.21168
H         -0.46200       -3.39062       -2.40760
H         -0.01277       -4.60888       -1.16970
S          2.19991        1.16355       -0.71636
O          2.99753        0.83700        0.46326
O          0.89261        1.77871       -0.47609
O          2.06953       -0.07151       -1.66259
H          1.72456       -0.93867       -1.18353
C          3.14192        2.23812       -1.77242
H          4.10440        1.76643       -1.96748
H          2.58449        2.39375       -2.69562
H          3.27140        3.17807       -1.23523
H         -1.29331        0.50199        3.50274
H         -1.32586       -1.05755        2.62200
H          0.79631       -0.79987        3.93318
H          1.09299       -0.91017        2.20551
H          1.54032        1.38747        3.88169
H          2.15636        1.03771        2.38305
H         -1.90382        1.12801        1.31568
H         -0.22114        1.33639        1.36276
C         -0.82453       -0.09229        2.71351
C          0.66978       -0.26735        2.98377
N         -0.97746        0.64118        1.43514
N          1.32070        1.03852        2.95853
H         -0.88600       -0.01170        0.62989
H         -4.08101        2.96598       -0.99670
H         -2.46831        3.38020       -0.38253
H         -2.42188        2.04379       -2.51304
H         -1.51887        1.30506       -1.20684
H         -3.89300        0.27914       -2.44028
H         -2.73229       -0.48990       -1.54973
H         -3.98214        2.45223        1.33348
H         -3.98930        1.04165        0.48183
C         -3.16147        2.55059       -0.55813
C         -2.53184        1.55397       -1.53690
N         -3.43270        1.86563        0.71440
N         -3.32951        0.32961       -1.60164
