38
2msa1ma1tma_119.log	Energy: -1003274.5217945
S         -0.82149       -1.36005        0.44556
O         -0.78831       -0.77011        1.79192
O         -0.27755       -0.43544       -0.59868
O         -2.20539       -1.79318        0.03903
H         -3.01614       -0.55244       -0.32121
C          0.17301       -2.82968        0.43429
H          1.20145       -2.52934        0.64383
H         -0.21492       -3.49966        1.20175
H          0.09399       -3.28205       -0.55435
S          3.33353       -0.05670       -0.39798
O          4.49600       -0.19655       -1.25217
O          2.92685       -1.16415        0.46125
O          2.10531        0.33096       -1.33899
H          1.24191       -0.02471       -0.97929
C          3.52300        1.39914        0.60371
H          4.33165        1.19409        1.30686
H          3.79279        2.22305       -0.05773
H          2.58021        1.59938        1.12644
N          0.42376        2.11696        1.54589
H          0.05564        1.16769        1.55639
C          0.10136        2.84002        0.32546
H         -0.97568        3.00075        0.14140
H          0.57766        3.82524        0.34605
H          0.50971        2.29770       -0.53150
H          0.08587        2.59470        2.37267
N         -3.54224        0.37588       -0.50106
C         -2.89120        1.02934       -1.66366
H         -1.82683        1.12712       -1.44800
H         -3.01606        0.39114       -2.53882
H         -3.35434        2.00404       -1.83592
C         -4.95919        0.04503       -0.76449
H         -5.01334       -0.60608       -1.63746
H         -5.36739       -0.47676        0.10152
H         -5.52230        0.96347       -0.94788
C         -3.37781        1.17505        0.73869
H         -3.80911        0.62229        1.57326
H         -2.31276        1.31269        0.92726
H         -3.87569        2.14017        0.61691
