38
2msa2dma_195.log	Energy: -1003273.0716138
S         -0.86194       -1.56292        0.64417
O         -1.23315       -0.23627        1.16197
O          0.14862       -2.29568        1.39381
O         -0.45844       -1.44371       -0.86793
H          0.39318       -0.85563       -1.01356
C         -2.33971       -2.52854        0.47817
H         -2.70959       -2.70809        1.48841
H         -3.05552       -1.93941       -0.10286
H         -2.08233       -3.46709       -0.01198
S          2.84064        0.00585       -0.58889
O          3.92831        0.49508       -1.42484
O          1.50709        0.01605       -1.29509
O          2.69661        0.72488        0.72290
H          1.56777        1.73941        0.76482
C          3.16441       -1.69232       -0.16003
H          3.22900       -2.26070       -1.08848
H          4.11588       -1.72097        0.37149
H          2.35320       -2.05745        0.47305
N          0.83712        2.52851        0.88356
C          0.24067        2.40564        2.23570
C         -0.15251        2.47770       -0.22191
H          1.37326        3.39315        0.81985
H         -0.25755        1.43736        2.29060
H          1.04005        2.45603        2.97519
H         -0.47695        3.21278        2.39614
H         -0.72347        1.55707       -0.11017
H         -0.81168        3.34617       -0.16041
H          0.38202        2.45477       -1.17099
N         -3.66248        0.36936       -0.66670
C         -4.89832        1.10129       -0.45594
C         -2.97708        0.75055       -1.89026
H         -3.03778        0.48945        0.12537
H         -5.61728        0.84101       -1.24042
H         -5.33736        0.82090        0.50540
H         -4.76962        2.19899       -0.47357
H         -3.58458        0.46455       -2.75594
H         -2.78508        1.83744       -1.96687
H         -2.02439        0.21954       -1.95844
