38
2msa2dma_65.log	Energy: -1003285.9673664
S         -2.39171       -0.13820       -0.24637
O         -2.16792        1.33618       -0.39038
O         -2.47150       -0.58215        1.15651
O         -1.40460       -0.91941       -1.03967
C         -3.98744       -0.42584       -0.99017
H         -4.72407        0.16565       -0.44625
H         -3.93918       -0.11791       -2.03467
H         -4.21285       -1.48948       -0.90950
S          1.01049        2.13805        0.13151
O          2.24345        2.84605       -0.15174
O          1.10238        0.72626        0.51668
O          0.07682        2.28182       -1.12571
H         -0.82724        1.84453       -0.93475
C          0.09994        2.97778        1.41053
H          0.67548        2.89088        2.33267
H         -0.00977        4.02238        1.11954
H         -0.87243        2.48986        1.50285
N          0.35307       -2.06338        0.76331
C          0.39083       -1.68656        2.19127
C         -0.29984       -3.36221        0.51288
H         -0.17857       -1.35787        0.21563
H          0.89752       -2.47413        2.75353
H          0.92794       -0.74421        2.27850
H         -0.63430       -1.55518        2.54012
H          0.25816       -4.15528        1.01512
H         -1.32170       -3.31777        0.89206
H         -0.32546       -3.53812       -0.56249
H          1.32579       -2.06825        0.33993
N          2.75723       -1.99491       -0.67787
C          3.77456       -1.11543       -0.09235
C          2.17965       -1.43512       -1.90641
H          3.18097       -2.89279       -0.89217
H          3.29897       -0.17676        0.19976
H          4.19829       -1.58755        0.79818
H          4.58863       -0.89059       -0.79634
H          1.63935       -0.51832       -1.65873
H          2.94290       -1.20088       -2.66145
H          1.46381       -2.14358       -2.33199
