25
2msa1ma_72.log	Energy: -893787.2257674
S          2.23885       -0.46260       -0.09565
O          1.17844       -0.58785       -1.09336
O          3.35343        0.42313       -0.37756
O          2.85104       -1.94937        0.12557
H          3.75723       -1.95051       -0.21585
C          1.52423       -0.14444        1.48217
H          1.04085        0.84334        1.38620
H          0.77433       -0.91222        1.67795
H          2.32497       -0.14338        2.22118
S         -2.23213       -0.38955        0.11493
O         -2.63831        0.93064        0.56906
O         -1.46251       -1.23996        1.01279
O         -1.45131       -0.25185       -1.26753
H         -0.47789       -0.40801       -1.14669
C         -3.67557       -1.25961       -0.44588
H         -4.33137       -1.37389        0.41779
H         -4.15840       -0.66019       -1.21745
H         -3.36620       -2.22944       -0.83362
N          0.01507        2.58888        0.68817
H         -0.96961        2.35167        0.78357
C          0.33036        2.91541       -0.70373
H         -0.18178        3.80989       -1.08514
H          1.40886        3.06173       -0.81164
H          0.05007        2.07257       -1.34002
H          0.19561        3.38456        1.29085
