37
2msa1ma1eda_398.log	Energy: -1013353.0054172
S          1.23512        1.64237       -0.25903
O          0.60643        0.89523       -1.48809
O          2.68105        1.58325       -0.40651
O          0.66396        1.09555        0.98409
H          0.61558       -0.58883        1.45682
C          0.66377        3.30831       -0.42339
H          1.01799        3.68740       -1.38233
H         -0.43493        3.28035       -0.36486
H          1.09721        3.87547        0.40150
S         -1.83431       -1.43900       -0.28627
O         -2.10401       -1.10249        1.11925
O         -0.70945       -2.40809       -0.43622
O         -1.63591       -0.22771       -1.15379
H         -0.30556        0.45328       -1.30322
C         -3.28056       -2.22912       -0.96105
H         -3.46861       -3.13510       -0.38483
H         -4.11545       -1.53396       -0.87056
H         -3.08528       -2.46624       -2.00666
N         -2.43927        2.50225        0.02086
H         -3.27644        2.93186       -0.35813
C         -2.52942        2.39006        1.47760
H         -3.38723        1.80324        1.83312
H         -1.62182        1.90704        1.84645
H         -2.58670        3.39014        1.91967
H         -2.36579        1.57341       -0.39049
H          1.89939       -1.13757       -0.72506
H          2.42250       -2.80195       -0.53214
H          2.75721       -2.57034        1.82757
H          2.83763       -0.80039        1.72266
H          0.31590       -2.11574        0.89487
H          0.63624       -1.86207        2.52901
H          4.30659       -1.78506       -1.34117
H          4.09998       -0.42270       -0.46158
C          2.61337       -1.77944       -0.19260
C          2.36027       -1.69340        1.31366
N          4.00542       -1.43534       -0.43950
N          0.89779       -1.58126        1.58705
