37
2msa1ma1eda_565.log	Energy: -1013345.1960493
S         -2.10905        0.77465        0.30559
O         -3.53127        1.07518        0.33067
O         -1.20319        1.61057        1.09884
O         -1.64502        0.83328       -1.20645
H         -0.64522        1.06079       -1.29378
C         -1.85712       -0.92592        0.74246
H         -2.53709       -1.52123        0.12484
H         -0.80993       -1.18227        0.56348
H         -2.10823       -1.02096        1.80027
S          2.61335       -1.39952        0.02675
O          1.20700       -1.77522       -0.13543
O          3.00022       -0.96359        1.39333
O          3.03983       -0.34239       -0.97839
H          3.24093        0.99528       -0.13370
C          3.59865       -2.83188       -0.36494
H          3.32200       -3.62126        0.33441
H          3.37147       -3.12844       -1.38888
H          4.65166       -2.57252       -0.25748
N         -4.71046       -1.54048       -0.83695
H         -4.55167       -0.55231       -1.01139
C         -5.55355       -1.70241        0.34394
H         -6.55434       -1.25315        0.25911
H         -5.67443       -2.76742        0.56488
H         -5.05524       -1.23573        1.19814
H         -5.15243       -1.93644       -1.65867
H          1.99743        3.33892       -1.05181
H          0.33047        3.27871       -0.46018
H          1.57376        2.89509        1.47830
H          1.05449        1.28064        0.99909
H          3.76001        2.43798        0.66390
H          3.27570        1.03743        1.47617
H          0.80215        1.96433       -2.52560
H          1.53867        0.83498       -1.58481
C          1.22147        2.67267       -0.64360
C          1.67028        2.13150        0.70545
N          0.85714        1.59945       -1.57926
N          3.09361        1.66946        0.68275
