29
2msa1a1ma_148.log	Energy: -929288.8193260
S         -1.70351       -1.14099       -0.24489
O         -1.87974       -2.57384       -0.13220
O         -0.89311       -0.47403        0.80789
O         -3.09586       -0.41107       -0.25483
H         -3.19374        0.23933        0.55278
C         -1.03614       -0.72573       -1.82803
H         -0.06129       -1.21224       -1.89762
H         -1.72638       -1.10730       -2.58112
H         -0.91970        0.36433       -1.87894
S          2.46842       -0.11399        0.12604
O          2.33759        1.33503        0.02017
O          2.14938       -0.91389       -1.04835
O          1.65083       -0.64701        1.37965
H          0.67027       -0.65110        1.17241
C          4.10339       -0.50687        0.69604
H          4.79365       -0.16313       -0.07484
H          4.27835        0.01988        1.63361
H          4.17439       -1.58597        0.82741
N         -3.22534        1.16815        1.81307
H         -3.25762        2.16020        1.60096
H         -2.32368        0.96461        2.23883
H         -3.95504        0.96021        2.48719
N         -0.18513        2.44020       -1.43366
H          0.77793        2.18003       -1.23380
C         -0.82856        2.89444       -0.20514
H         -0.37669        3.78954        0.24729
H         -1.88528        3.10648       -0.40463
H         -0.77872        2.08369        0.52712
H         -0.16654        3.18012       -2.12682
