38
2msa2dma_73.log	Energy: -1003286.3985031
S         -0.48354        1.74494       -0.17678
O         -1.51580        1.25737       -1.11115
O          0.81039        2.08735       -0.82874
O         -0.29526        0.82005        0.98046
C         -1.07745        3.28536        0.49986
H         -2.03488        3.10006        0.98793
H         -0.34336        3.65243        1.21723
H         -1.19613        3.99056       -0.32292
S          3.03975       -0.50945        0.04291
O          4.35776       -1.09636       -0.08550
O          1.86853       -1.37466       -0.11894
O          2.96281        0.68491       -0.98338
H          2.07615        1.17306       -0.94660
C          2.88840        0.29451        1.62408
H          3.00996       -0.47680        2.38593
H          3.67909        1.04046        1.70314
H          1.89285        0.74113        1.67955
N         -1.00803       -1.70670       -0.09372
C         -0.78889       -1.84805       -1.55151
C         -0.63040       -2.89936        0.68968
H         -0.48972       -0.87913        0.25940
H         -1.41348       -2.66408       -1.92183
H         -1.06937       -0.90499       -2.02144
H          0.26582       -2.05570       -1.72880
H         -1.23580       -3.74758        0.36299
H          0.42924       -3.10052        0.53616
H         -0.81779       -2.69845        1.74547
H         -2.03170       -1.49987        0.07472
N         -3.74045       -1.15125        0.36494
C         -4.25645       -0.56102       -0.87504
C         -3.70278       -0.18577        1.46625
H         -4.32607       -1.93689        0.63104
H         -3.56820        0.22411       -1.19861
H         -4.30332       -1.32842       -1.65229
H         -5.25847       -0.12587       -0.74663
H         -2.96025        0.58140        1.23418
H         -4.67564        0.29781        1.63706
H         -3.39091       -0.68809        2.38563
