38
2msa2dma_226.log	Energy: -1003269.9427450
S         -2.13210       -0.90490        0.57338
O         -1.26922       -0.79089        1.74994
O         -1.65467       -0.09601       -0.59908
O         -3.57038       -0.53833        0.83970
H         -3.84451        0.85316        0.36552
C         -2.14946       -2.60426        0.05462
H         -1.12287       -2.86411       -0.21171
H         -2.51028       -3.20414        0.89034
H         -2.81212       -2.69376       -0.80601
S          1.77418       -1.06418       -0.65194
O          3.04560       -0.93836       -1.34243
O          0.96673       -2.26453       -0.84785
O          0.91022        0.20866       -1.07275
H         -0.06179        0.04744       -0.89317
C          2.02277       -0.81655        1.08820
H          2.60226       -1.67015        1.44448
H          2.58280        0.11652        1.22140
H          1.04137       -0.78749        1.56702
N         -3.97170        1.86560       -0.02229
C         -4.04249        1.78002       -1.50079
C         -2.84266        2.69090        0.47421
H         -4.84997        2.22232        0.35086
H         -3.13156        1.28537       -1.83923
H         -4.90757        1.17587       -1.77518
H         -4.12842        2.78031       -1.92923
H         -1.92147        2.25647        0.08542
H         -2.95992        3.72135        0.13411
H         -2.82884        2.64527        1.56336
N          4.22882        1.67210        0.92704
C          3.85480        2.37903       -0.29109
C          5.30465        0.71391        0.70745
H          4.50414        2.33893        1.63976
H          3.46426        1.65863       -1.01546
H          3.06355        3.10073       -0.06964
H          4.69850        2.91316       -0.76251
H          4.95863       -0.04999        0.00433
H          6.21993        1.16960        0.29151
H          5.55887        0.22338        1.65180
