37
2msa1ma1eda_239.log	Energy: -1013362.1262234
S          0.84156        2.19025       -0.02257
O          1.49608        1.50699        1.11268
O         -0.47988        2.76262        0.27731
O          0.76148        1.28202       -1.23481
C          1.91460        3.52522       -0.51788
H          1.98528        4.22316        0.31673
H          2.89322        3.10803       -0.75593
H          1.47570        4.00913       -1.39026
S          1.65342       -1.95053       -0.35721
O          2.04998       -3.25866       -0.83692
O          0.24549       -1.71430       -0.02572
O          2.11137       -0.88814       -1.43205
H          1.60626       -0.01128       -1.32920
C          2.62334       -1.52270        1.07098
H          2.33050       -2.20074        1.87398
H          3.67451       -1.66126        0.81791
H          2.40587       -0.48188        1.32241
N         -1.13180        0.14282        2.08627
H         -0.14737        0.37884        1.95087
C         -1.27804       -1.12734        2.79978
H         -0.78464       -1.14020        3.77999
H         -2.34011       -1.34255        2.95274
H         -0.85297       -1.92097        2.18133
H         -1.52707        0.91525        2.61423
H         -2.58603       -0.77199       -2.23091
H         -1.86993       -1.75766       -0.93900
H         -4.36085       -1.94323       -0.90564
H         -3.76547       -1.16727        0.56451
H         -5.05045        0.20935       -1.67780
H         -5.40834        0.29351       -0.08424
H         -0.92737        0.51027       -1.03535
H         -2.44028        1.11628       -0.68212
C         -2.50445       -0.89550       -1.14660
C         -3.88374       -1.03388       -0.51608
N         -1.83557        0.29698       -0.59030
N         -4.64914        0.19071       -0.74626
H         -1.62087        0.18722        0.45928
