37
2msa1ma1eda_142.log	Energy: -1013362.6176637
S          2.20209       -0.67400       -0.61669
O          2.63305       -0.32819        0.74775
O          1.70889        0.49382       -1.39938
O          1.21270       -1.80065       -0.65666
C          3.63369       -1.28617       -1.48360
H          4.38884       -0.50007       -1.48251
H          3.99576       -2.16817       -0.95517
H          3.33762       -1.53812       -2.50180
S         -1.92895       -1.36385        0.43061
O         -3.36427       -1.38731        0.22963
O         -1.34449       -0.29558        1.24532
O         -1.26488       -1.35174       -1.00552
H         -0.25091       -1.47359       -0.93156
C         -1.37340       -2.90992        1.11381
H         -1.77890       -2.98208        2.12346
H         -1.75283       -3.71479        0.48454
H         -0.28208       -2.89575        1.12563
N          1.53879        2.10957        2.15943
H          2.11461        1.37223        1.74441
C          0.80961        1.56032        3.31001
H          1.46757        1.16100        4.09160
H          0.17802        2.33739        3.75014
H          0.15971        0.75407        2.96131
H          2.16306        2.85383        2.45261
H         -1.26235        3.74276       -0.30570
H          0.14836        3.55539       -1.37489
H         -1.96835        3.16142       -2.64808
H         -0.98752        1.69784       -2.56632
H         -3.51721        2.13677       -1.21197
H         -2.82642        0.72686       -1.71619
H         -0.94215        1.37880        0.30637
H          0.47880        1.35952       -0.57050
C         -0.69532        3.03433       -0.91578
C         -1.59598        2.38408       -1.96809
N         -0.17135        1.97508       -0.03387
N         -2.64619        1.63123       -1.30064
H          0.39783        2.29032        0.80037
