35
2msa1ma1dma_06.log	Energy: -978641.5824685
S         -2.82306       -0.10962       -0.13764
O         -2.46680       -1.25990       -1.01479
O         -3.02477        1.16534       -0.83717
O         -1.82434        0.01752        0.98204
C         -4.36953       -0.54436        0.63860
H         -4.64333        0.25565        1.32645
H         -5.11885       -0.64837       -0.14655
H         -4.23918       -1.48606        1.17183
S          2.82343       -0.11038       -0.13761
O          3.02461        1.16347       -0.83932
O          2.46730       -1.26220       -1.01281
O          1.82491        0.01819        0.98206
C          4.37023       -0.54340        0.63890
H          4.64393        0.25780        1.32541
H          4.24031       -1.48429        1.17364
H          5.11940       -0.64840       -0.14626
N         -0.00027       -2.01444       -0.07569
H         -0.00178       -1.29964        0.66115
H         -0.86718       -1.82737       -0.62661
C         -0.00221       -3.37208        0.50044
H          0.00069       -4.10376       -0.30680
H          0.88884       -3.50031        1.11474
H         -0.89768       -3.50037        1.10828
H          0.86897       -1.82797       -0.62339
N          0.00029        1.95808        0.32994
C         -0.00006        2.09252       -1.14630
C          0.00016        3.24387        1.05019
H         -0.81783        1.37444        0.61688
H          0.90745        2.61171       -1.45293
H         -0.00045        1.09445       -1.58431
H         -0.90745        2.61218       -1.45249
H          0.89392        3.80673        0.77676
H         -0.89449        3.80587        0.77795
H          0.00100        3.04885        2.12282
H          0.81881        1.37472        0.61648
