30
2msa1eda_170.log	Energy: -953176.7899086
S         -2.56525        0.48171        0.08047
O         -1.47243        1.40802       -0.19320
O         -2.58249       -0.18032        1.37513
O         -2.64055       -0.60588       -1.08677
H         -1.83726       -1.17977       -1.04383
C         -4.11999        1.28175       -0.21826
H         -4.21268        2.06632        0.53339
H         -4.10494        1.70616       -1.22150
H         -4.91324        0.54327       -0.10715
S          0.92061       -1.81348       -0.12818
O         -0.38025       -2.07886       -0.74335
O          2.02506       -1.47809       -1.00819
O          1.32312       -3.11925        0.73810
H          1.53627       -3.84798        0.13578
C          0.75528       -0.65900        1.19501
H          0.37400        0.26127        0.74556
H          0.03134       -1.05390        1.90794
H          1.74308       -0.48474        1.62383
H          1.42133        1.44182       -1.00597
H          1.73865        3.14314       -1.34353
H          3.82979        1.97785       -1.48164
H          3.86028        2.96192       -0.00659
H          3.47440        0.06852       -0.15490
H          4.60278        0.89720        0.69054
H          0.34247        2.75357        0.66948
H          1.69054        2.16881        1.41081
C          1.90070        2.35163       -0.60340
C          3.39566        2.08911       -0.47714
N          1.35645        2.78613        0.67693
N          3.63897        0.91942        0.37739
