32
2msa2ma_238.log	Energy: -953945.9589500
S          1.43988        0.24295       -0.07236
O          0.35195        0.18219       -1.06362
O          2.50628        1.20206       -0.35654
O          2.06376       -1.18468        0.08355
H          3.09936       -1.17495       -0.24285
C          0.72646        0.56285        1.51085
H          0.17379        1.50955        1.41839
H          0.03094       -0.24741        1.73840
H          1.53518        0.62122        2.23942
S         -2.75351       -0.87090        0.08425
O         -3.31214        0.47054       -0.02630
O         -2.02603       -1.21035        1.30048
O         -1.86248       -1.20348       -1.18691
H         -0.99294       -0.70605       -1.14370
C         -4.04175       -2.06319       -0.18691
H         -4.76251       -1.93343        0.62098
H         -4.50418       -1.86108       -1.15248
H         -3.60028       -3.05860       -0.15733
N         -1.37092        2.89341        0.63127
H         -2.09898        2.19764        0.48369
C         -0.92005        3.43050       -0.65292
H         -1.70894        3.92420       -1.23955
H         -0.11515        4.15262       -0.48563
H         -0.50976        2.61452       -1.25288
H         -1.77275        3.62726        1.20471
N          4.49230       -1.00822       -0.62495
H          4.82710       -1.69126       -1.29770
C          5.34781       -0.96515        0.57005
H          6.39192       -0.73320        0.33849
H          4.95822       -0.20181        1.24615
H          5.30067       -1.93037        1.07777
H          4.47111       -0.09810       -1.08199
