37
2msa1ma1eda_494.log	Energy: -1013349.7158432
S          2.95839       -1.17641       -0.16720
O          3.64699        0.12547       -0.07316
O          2.26819       -1.44156       -1.42114
O          2.00807       -1.36185        1.05710
H          1.29156       -0.58627        1.08339
C          4.14623       -2.45238        0.15642
H          4.88148       -2.41283       -0.64755
H          4.61171       -2.25693        1.12175
H          3.62396       -3.40876        0.15574
S         -0.75179        0.77041        0.16012
O         -1.94571        1.16431        0.90739
O          0.44614        0.54745        1.06337
O         -0.35836        1.72832       -0.91770
H          1.16530        2.15943       -0.80226
C         -1.07506       -0.78723       -0.63329
H         -1.96034       -0.64002       -1.25990
H         -0.19554       -1.07539       -1.21189
H         -1.28699       -1.51997        0.14796
N          2.17031        2.44272       -0.58375
H          2.72482        1.57075       -0.47351
C          2.19828        3.22282        0.67696
H          3.22878        3.46862        0.93336
H          1.60907        4.13054        0.54978
H          1.75041        2.59969        1.45053
H          2.54595        2.96877       -1.36944
H         -6.04904       -0.04347       -0.30801
H         -5.56625       -1.15219       -1.60983
H         -5.41511       -2.26636        0.52277
H         -3.79987       -2.09214       -0.18411
H         -4.03552       -1.49112        2.24429
H         -3.47494       -0.21870        1.37853
H         -4.51213        0.91483       -2.00251
H         -3.82993        0.95667       -0.52156
C         -5.19395       -0.57092       -0.75838
C         -4.63438       -1.53714        0.27845
N         -4.15264        0.33027       -1.25606
N         -4.27229       -0.83827        1.50665
