37
2msa1ma1eda_396.log	Energy: -1013353.6305986
S         -1.09505       -1.37195       -0.82488
O         -2.54790       -1.22527       -0.73885
O         -0.41746       -1.03158        0.48370
O         -0.45415       -0.62057       -1.93929
H          0.25302        0.83139       -1.55215
C         -0.73240       -3.09093       -1.12400
H         -1.15353       -3.67120       -0.30277
H         -1.19666       -3.36889       -2.07029
H          0.35013       -3.21289       -1.17522
S          2.79667        0.02064        0.49033
O          2.08460        1.15908        1.08464
O          3.09076        0.14178       -0.93515
O          2.03218       -1.30663        0.80256
H          0.99514       -1.19988        0.66154
C          4.30280       -0.26649        1.38135
H          4.93719        0.60582        1.22244
H          4.06299       -0.38777        2.43705
H          4.77107       -1.16322        0.97617
N         -3.92895        0.48247        1.46670
H         -4.93186        0.56644        1.59162
C         -3.34209       -0.33300        2.53051
H         -3.79761       -1.32807        2.64043
H         -2.27988       -0.47938        2.31642
H         -3.42705        0.19071        3.48775
H         -3.76640        0.02015        0.57433
H         -0.16275        3.74185       -1.05832
H         -0.71229        2.87632       -2.52436
H         -2.50218        3.10927       -0.78392
H         -2.16670        1.42818       -1.20195
H         -2.32993        1.98907        1.20440
H         -0.98427        1.20785        0.83904
H          1.41700        2.00320       -1.81907
H          0.88962        1.75167       -0.28786
C         -0.51624        2.78694       -1.45351
C         -1.75355        2.31569       -0.69990
N          0.58109        1.79486       -1.27443
N         -1.44449        2.10875        0.70915
