37
2msa1ma1eda_176.log	Energy: -1013360.7194288
S          0.23037        2.10829       -0.30201
O         -1.24622        2.14251       -0.50270
O          0.86999        0.97577       -1.01341
O          0.61399        2.18191        1.13270
H          0.33559        0.82888        2.13388
C          0.83817        3.60682       -1.04685
H          1.91844        3.63991       -0.90485
H          0.58693        3.58395       -2.10725
H          0.35631        4.45015       -0.55246
S         -2.38741       -1.15968       -0.37959
O         -3.49012       -2.09486       -0.41246
O         -1.36956       -1.32166        0.67036
O         -2.99617        0.28889       -0.29246
H         -2.27911        1.00867       -0.32147
C         -1.52707       -1.16288       -1.93714
H         -1.10606       -2.16059       -2.06983
H         -2.25183       -0.94596       -2.72173
H         -0.73706       -0.40823       -1.89523
N          0.25091       -0.12166        2.56064
H         -0.65937       -0.49300        2.26498
C          0.45060       -0.11844        4.01914
H          0.36840       -1.13520        4.40407
H          1.44255        0.27602        4.23959
H         -0.30120        0.51300        4.49316
H          0.95359       -0.71265        2.02008
H          3.74983       -1.15895        0.74737
H          3.20677       -2.82964        0.91438
H          4.35317       -2.60579       -1.22008
H          2.64525       -2.87806       -1.53130
H          2.43302       -0.49593       -1.96650
H          4.03215       -0.29598       -1.71299
H          1.48248       -0.61386        0.01746
H          1.00323       -2.13300        0.34094
C          3.04989       -1.90374        0.34856
C          3.36148       -2.14567       -1.13563
N          1.68832       -1.42773        0.60480
N          3.33017       -0.97181       -1.99564
