32
2msa2ma_157.log	Energy: -953957.2418338
S         -1.36710       -0.71248       -0.57935
O         -1.47369        0.74522       -0.81636
O         -1.19359       -1.10491        0.81418
O         -0.23519       -1.30685       -1.47583
H          0.70078       -0.89546       -1.22096
C         -2.79433       -1.49324       -1.27131
H         -3.65364       -1.05967       -0.74605
H         -2.82545       -1.26482       -2.33645
H         -2.70350       -2.56545       -1.09891
S          2.72400       -0.34232        0.38109
O          4.15213       -0.46055        0.13236
O          1.90684       -0.22312       -0.89102
O          2.33378        0.77835        1.29556
H          1.28723        1.73959        0.63793
C          2.15978       -1.83662        1.17317
H          2.39891       -2.67465        0.51742
H          2.69616       -1.92831        2.11799
H          1.08411       -1.76109        1.34204
N          0.62045        2.36853        0.08288
H         -0.18681        1.78173       -0.20747
C          1.32343        2.90608       -1.10659
H          0.63889        3.51242       -1.69991
H          2.17466        3.50243       -0.77866
H          1.67864        2.05271       -1.68350
H          0.28179        3.10814        0.69383
N         -4.45209        0.71892        0.46804
H         -3.73387        1.30415        0.05138
C         -4.18426        0.50991        1.89187
H         -4.18029        1.43032        2.49423
H         -4.94046       -0.16321        2.30538
H         -3.21253        0.02190        2.00336
H         -5.34349        1.18194        0.33022
