42
2msa2eda_389.log	Energy: -1072751.1576343
S         -1.30041        2.32767        0.24160
O         -1.21689        3.51023        1.08820
O         -0.96757        1.05372        1.01117
O         -0.47899        2.37013       -0.99813
H          0.60707        1.07883       -1.08267
C         -2.99148        2.11920       -0.28517
H         -3.61735        2.05216        0.60544
H         -3.25899        2.99782       -0.87300
H         -3.06240        1.21143       -0.88753
S         -1.87088       -1.82340       -0.42601
O         -0.43321       -2.06209       -0.64103
O         -2.57174       -1.11515       -1.48825
O         -2.09480       -1.13255        0.95617
H         -1.65458       -0.16717        0.98012
C         -2.64855       -3.38943       -0.12595
H         -2.53510       -3.97693       -1.03734
H         -2.14842       -3.87018        0.71412
H         -3.70143       -3.21024        0.08993
H          2.24612       -1.00846       -2.35232
H          1.52443        0.43706       -3.07603
H          3.91287        0.81188       -3.01440
H          3.20609        1.82617       -1.75798
H          4.71339       -0.64056       -1.33674
H          4.83033        0.78841       -0.54831
H          0.61126       -0.57570       -0.86351
H          1.76931        0.36608       -0.11199
C          2.07346        0.06198       -2.20937
C          3.40183        0.78711       -2.04234
N          1.22738        0.23870       -1.00893
N          4.17992        0.14704       -0.98460
H          0.71149       -1.51596        1.69698
H          1.78297       -2.43095        2.76115
H          1.86135       -0.21741        3.57142
H          3.37363       -0.42629        2.67541
H          0.98506        1.02498        1.77750
H          2.51097        1.59225        1.92936
H          2.04531       -2.63483        0.19055
H          3.01614       -1.31464        0.37103
C          1.76566       -1.66215        1.97932
C          2.28546       -0.35643        2.56794
N          2.59392       -2.10322        0.85719
N          1.96997        0.77145        1.67884
