32
2msa1a1dma_77.log	Energy: -953963.0094051
S          3.02769       -0.72859        0.00987
O          4.37113       -1.24964       -0.22782
O          2.72612        0.56479       -0.69174
O          2.65722       -0.61623        1.46242
H          2.01247        0.87030        1.75611
C          1.86938       -1.90837       -0.67277
H          2.07413       -2.00222       -1.74037
H          2.03251       -2.86344       -0.17182
H          0.85810       -1.53962       -0.49112
S         -1.22678        1.10741       -0.43205
O         -0.75137        2.18202        0.46724
O         -2.65319        1.27765       -0.84042
O         -1.00480       -0.26008        0.14421
H         -2.50974       -1.02306        0.38324
C         -0.24160        1.18511       -1.91031
H         -0.36647        2.17850       -2.34269
H          0.80254        0.99784       -1.63635
H         -0.60258        0.42131       -2.59988
N          1.80845        1.87193        1.46926
H          2.31331        1.89266        0.56484
H          2.16581        2.55096        2.13243
H          0.79953        2.01182        1.26297
N         -3.55624       -0.96709        0.29768
C         -4.16367       -0.80895        1.63444
C         -4.08965       -2.07925       -0.51076
H         -3.59712       -0.06130       -0.22636
H         -3.99364       -1.71471        2.21804
H         -3.69198        0.04224        2.12574
H         -5.23442       -0.62941        1.52787
H         -3.92502       -3.02193        0.01299
H         -5.15755       -1.92970       -0.67655
H         -3.56747       -2.09467       -1.46741
