38
2msa2dma_124.log	Energy: -1003284.0429580
S         -1.17263       -1.04413        0.37378
O         -0.32443       -0.73644        1.52707
O         -1.40996        0.18063       -0.48983
O         -2.49547       -1.66333        0.71695
H         -3.72281       -0.73315        0.16474
C         -0.32017       -2.21091       -0.65838
H          0.60659       -1.73364       -0.99580
H         -0.11746       -3.09696       -0.05535
H         -0.96797       -2.46061       -1.49914
S          3.27810       -0.30704       -0.23872
O          4.61206       -0.43966       -0.82001
O          2.14770       -0.35110       -1.20812
O          3.12358        0.90163        0.65308
H          1.72275        1.45330        0.37567
C          3.03377       -1.69745        0.86264
H          3.10106       -2.61478        0.27534
H          3.82182       -1.67422        1.61587
H          2.05131       -1.59720        1.32867
N         -4.08281        0.13943       -0.31828
C         -4.62093        1.07646        0.68681
C         -4.99293       -0.18555       -1.43135
H         -3.15720        0.47899       -0.66134
H         -5.52008        0.65020        1.13378
H         -3.86314        1.22095        1.45746
H         -4.85832        2.02966        0.21156
H         -5.89520       -0.65357       -1.03517
H         -5.25648        0.72647       -1.96961
H         -4.48662       -0.87771       -2.10417
N          0.80046        1.93027        0.08503
C          1.11037        2.79297       -1.06937
C          0.22469        2.61933        1.25064
H          0.15137        1.18713       -0.21594
H          1.84130        3.54391       -0.76565
H          1.53965        2.15860       -1.84552
H          0.19941        3.27745       -1.42877
H          0.94817        3.34171        1.63276
H         -0.69554        3.13361        0.96241
H          0.00975        1.86772        2.01088
