29
2msa1a1ma_82.log	Energy: -929298.5609963
S         -2.23178        0.00020       -0.25944
O         -1.26808       -1.08866       -0.65520
O         -1.78456        1.34153       -0.63417
O         -2.58299       -0.16442        1.18552
H         -1.47580       -1.10793        1.85593
C         -3.72832       -0.33671       -1.16513
H         -4.05804       -1.34886       -0.93190
H         -4.47463        0.39549       -0.85633
H         -3.50722       -0.23455       -2.22767
S          2.16358       -0.74552       -0.25284
O          2.94170       -1.96960       -0.31006
O          1.46090       -0.47223        1.02147
O          1.12182       -0.70357       -1.42785
H          0.15210       -0.80166       -1.11955
C          3.16990        0.65764       -0.62820
H          3.94860        0.69950        0.13456
H          3.60656        0.49388       -1.61390
H          2.51797        1.54467       -0.60400
N         -0.66301       -1.76344        2.07454
H          0.21003       -1.30844        1.70826
H         -0.81269       -2.62071        1.54642
H         -0.58254       -1.96440        3.06710
N          0.85246        2.85990       -0.19565
H          0.77627        3.77469       -0.62770
C          0.84626        2.98527        1.26140
H         -0.06778        3.43626        1.67336
H          0.96120        1.98991        1.69983
H          1.70139        3.58881        1.58316
H          0.03227        2.33155       -0.48947
