26
2msa2a_79.log	Energy: -904633.2446729
S         -2.38325        0.09746       -0.07586
O         -3.71773       -0.36234       -0.39266
O         -1.96556        1.45182       -0.40815
O         -1.36235       -0.92545       -0.78020
H         -0.49980       -0.46269       -0.98152
C         -2.06414       -0.18685        1.65155
H         -2.71336        0.48929        2.20944
H         -2.31358       -1.22392        1.87680
H         -1.01083        0.02504        1.84386
S          1.88127       -0.01978        0.08821
O          1.18171        0.20361        1.34724
O          1.05337        0.02473       -1.13250
O          2.63408       -1.40158        0.11990
H          1.92477       -2.16111        0.00780
C          3.20876        1.12723       -0.09104
H          2.70938        2.10300       -0.14612
H          3.85209        1.04271        0.78461
H          3.74478        0.89140       -1.00979
N          0.74698       -3.19662       -0.20742
H         -0.13823       -2.69017       -0.26028
H          0.66930       -3.88579        0.53435
H          0.85575       -3.69698       -1.08495
N          0.73038        3.26412       -0.19230
H          0.64118        3.97256       -0.91378
H          0.53509        3.71828        0.69436
H         -0.02223        2.59442       -0.34640
