37
2msa1ma1eda_85.log	Energy: -1013365.3796467
S          2.43723       -0.74976       -0.44914
O          2.58578       -2.20990       -0.40703
O          3.64556        0.07974       -0.35916
O          1.42866       -0.30863        0.61400
H          1.66033        1.11249        1.16613
C          1.64045       -0.36741       -2.00500
H          2.25539       -0.78836       -2.80119
H          0.63510       -0.79108       -2.00322
H          1.57082        0.71508       -2.11458
S         -2.68090       -0.11892       -0.17873
O         -2.80975        1.21219        0.44519
O         -2.79132       -1.24615        0.80173
O         -1.47402       -0.27074       -1.03118
H          0.24396       -1.50919        0.70650
C         -4.09621       -0.29169       -1.25623
H         -4.99827       -0.21014       -0.64946
H         -4.05797        0.50804       -1.99632
H         -4.04497       -1.26665       -1.74131
N         -0.35108       -2.37015        0.68082
H         -1.34679       -2.05419        0.82497
C          0.14011       -3.36322        1.65559
H         -0.44331       -4.28075        1.57606
H          1.19297       -3.55818        1.45007
H          0.02775       -2.94744        2.65661
H         -0.27892       -2.71449       -0.27481
H          1.90328        3.93547        0.24946
H          2.28953        2.44215       -0.64380
H         -0.04861        3.40421       -1.19121
H         -0.10556        1.75101       -0.56828
H         -0.95317        4.12929        0.83472
H         -1.51790        2.57748        0.88123
H          2.63250        2.33977        1.84541
H          0.93326        2.46495        1.92708
C          1.61288        2.89416        0.08361
C          0.13355        2.78741       -0.30329
N          1.75232        2.16218        1.36963
N         -0.67476        3.15535        0.85746
