29
2msa1a1ma_25.log	Energy: -929309.2296299
S          2.20187       -0.64398       -0.05703
O          2.92727        0.58876       -0.38790
O          0.97159       -0.79662       -0.91840
O          1.86922       -0.79964        1.38247
H          0.81145        0.47169        1.97384
C          3.24683       -2.02249       -0.48318
H          3.46378       -1.96004       -1.54957
H          4.16310       -1.94321        0.10215
H          2.71490       -2.94414       -0.24714
S         -2.28634       -0.49280       -0.06699
O         -2.10077        0.57530       -1.04509
O         -2.31688       -0.08316        1.34474
O         -1.24711       -1.63317       -0.27677
H         -0.27128       -1.28161       -0.51435
C         -3.79609       -1.36113       -0.40821
H         -3.76141       -1.71431       -1.43826
H         -3.87962       -2.19133        0.29256
H         -4.61031       -0.65006       -0.26637
N          0.11175        1.24415        2.00427
H         -0.83047        0.82593        2.01215
H          0.22429        1.79595        1.05045
H          0.25824        1.83635        2.81534
N          0.40395        2.32296       -0.45247
H          1.35975        2.07152       -0.70764
C          0.11364        3.72904       -0.74067
H          0.27580        3.99400       -1.79189
H         -0.92957        3.94040       -0.49212
H          0.74980        4.36964       -0.12366
H         -0.20958        1.71365       -0.99384
