35
2msa1ma1dma_21.log	Energy: -978637.7329803
S          2.47490       -0.33763       -0.30258
O          2.98983       -1.67680        0.00337
O          3.43099        0.75908       -0.46409
O          1.40650        0.03966        0.73644
H          0.64549        1.43276        0.59717
C          1.55365       -0.46191       -1.83227
H          2.24554       -0.79864       -2.60514
H          0.72676       -1.16183       -1.70370
H          1.15455        0.52154       -2.08526
S         -2.30185       -0.20050       -0.41515
O         -1.63080       -1.33859       -1.06780
O         -1.93460        1.12972       -0.97903
O         -2.14127       -0.23208        1.07422
H         -0.98987       -1.51570        1.52514
C         -4.05014       -0.37216       -0.72803
H         -4.37784       -1.32809       -0.31907
H         -4.56920        0.45435       -0.24253
H         -4.20296       -0.34250       -1.80699
N         -0.05335       -1.95705        1.64741
H          0.61655       -1.19863        1.31427
C          0.11484       -3.18995        0.83919
H          1.17701       -3.42743        0.78412
H         -0.45018       -4.00621        1.29042
H         -0.27499       -2.97888       -0.15570
H          0.12030       -2.12317        2.63543
N          0.06728        2.30294        0.42630
C          0.92758        3.32680       -0.19703
C         -0.57832        2.71445        1.68829
H         -0.68230        1.97226       -0.22586
H          1.70707        3.61732        0.50836
H          1.40216        2.89874       -1.07990
H          0.32571        4.19425       -0.47407
H          0.18856        2.90142        2.44206
H         -1.16171        3.62155        1.51910
H         -1.23778        1.90423        2.00392
