38
2msa1ma1tma_127.log	Energy: -1003266.0747703
S          2.83800       -0.51473        0.23797
O          3.01180        0.88906        0.57532
O          2.52159       -0.86694       -1.14040
O          1.76906       -1.17890        1.20989
H          0.85500       -1.18037        0.80008
C          4.27977       -1.41238        0.76123
H          5.11881       -1.02265        0.18406
H          4.43059       -1.23341        1.82555
H          4.12224       -2.47035        0.55534
S         -1.34819       -1.12218       -1.00621
O         -1.60917       -2.41567       -1.61513
O         -0.68309       -1.15176        0.31879
O         -2.67847       -0.30574       -0.82535
H         -3.20680       -0.66664        0.02295
C         -0.43859       -0.07179       -2.09335
H          0.52896       -0.55083       -2.25280
H         -1.00344        0.01217       -3.02206
H         -0.31297        0.89333       -1.58291
N         -3.83993       -1.17964        1.29863
H         -4.84586       -1.04029        1.32295
C         -3.18349       -0.52955        2.44615
H         -3.53959       -0.90718        3.40985
H         -2.10819       -0.69639        2.36200
H         -3.36719        0.54574        2.39453
H         -3.67896       -2.18377        1.31950
N         -0.32805        2.56579       -0.19065
C         -1.62481        3.14290       -0.49157
H         -1.66439        3.44015       -1.54454
H         -2.40544        2.39459       -0.32309
H         -1.84682        4.03477        0.12618
C         -0.26120        2.10442        1.18590
H         -1.02387        1.33811        1.35117
H          0.71849        1.66003        1.37646
H         -0.42012        2.92663        1.91080
C          0.75968        3.48003       -0.49690
H          1.71500        2.98628       -0.30197
H          0.72077        3.75670       -1.55547
H          0.71079        4.40869        0.10380
