40
2msa1dma1eda_521.log	Energy: -1038008.8769074
S         -0.05779       -2.03893       -0.05297
O          1.09406       -2.93075       -0.02306
O         -0.29865       -1.25139       -1.25889
O          0.10146       -1.07095        1.18770
H         -0.33052       -0.14033        1.04083
C         -1.52653       -2.95301        0.34088
H         -1.69002       -3.66322       -0.47101
H         -1.35331       -3.47576        1.28162
H         -2.35065       -2.23097        0.42056
S         -0.23356        2.22582        0.03081
O         -0.43509        3.59731        0.47898
O         -0.89286        1.20759        0.92566
O          1.20120        1.85004       -0.19843
H          2.26684        1.28897        0.74472
C         -1.00541        2.02134       -1.56144
H         -2.06747        2.24284       -1.44661
H         -0.54273        2.72404       -2.25482
H         -0.85072        0.98778       -1.87470
N         -3.45675       -0.30672        0.18178
C         -4.63598        0.10731        0.92273
C         -3.68291       -0.37584       -1.25178
H         -2.68677        0.32692        0.38572
H         -5.41392       -0.66051        0.83869
H         -4.38536        0.22081        1.98043
H         -5.06527        1.05978        0.56514
H         -4.42479       -1.15344       -1.46936
H         -4.05963        0.56823       -1.68590
H         -2.75041       -0.64564       -1.75500
H          4.16970       -0.94305        1.42261
H          2.39137       -1.07118        1.28226
H          3.52132       -1.78449       -0.84502
H          2.48988       -0.37637       -1.07469
H          5.40192       -0.39276       -1.09146
H          4.35886        0.49102       -1.98888
H          3.19747        1.11592        2.17165
H          3.94315        1.34139        0.68169
C          3.28120       -0.57007        0.90499
C          3.41562       -0.72235       -0.60599
N          3.16542        0.88970        1.18091
N          4.52789        0.11999       -1.06211
