35
2msa1ma1dma_203.log	Energy: -978622.3601215
S         -2.82326       -1.03734       -0.04311
O         -4.13607       -1.63796        0.18631
O         -2.39338       -0.02985        0.96469
O         -2.66122       -0.46309       -1.43131
H         -2.06616        0.93313       -1.34325
C         -1.61518       -2.35483        0.04296
H         -1.69076       -2.81076        1.03146
H         -1.85653       -3.08652       -0.72900
H         -0.62564       -1.92234       -0.11768
S          1.33529        0.73350        0.68828
O          1.22284       -0.43572       -0.21432
O          0.72981        1.97063        0.14538
O          2.78088        0.95097        1.07418
H          3.66897        0.13484        0.22513
C          0.48251        0.34849        2.19713
H         -0.56868        0.17091        1.94405
H          0.94120       -0.54291        2.62644
H          0.59163        1.19919        2.87053
N         -1.68314        1.94039       -1.22336
H         -0.77055        1.87996       -0.72749
C         -2.63768        2.75237       -0.43586
H         -2.22549        3.74790       -0.26617
H         -3.58339        2.81802       -0.97447
H         -2.79679        2.23150        0.50806
H         -1.51777        2.33995       -2.14357
N          4.28097       -0.49899       -0.43052
C          3.95296       -0.15554       -1.83519
C          4.00613       -1.91502       -0.08929
H          5.25623       -0.27647       -0.23772
H          2.88715       -0.34065       -1.97481
H          4.16059        0.90292       -1.99398
H          4.54842       -0.76717       -2.51571
H          2.93744       -2.07934       -0.23137
H          4.59396       -2.57390       -0.73126
H          4.26332       -2.07928        0.95739
