37
2msa1ma1eda_457.log	Energy: -1013352.5137698
S         -0.60088       -1.87341        0.29755
O         -2.01108       -2.23436        0.62601
O          0.14598       -1.25710        1.40364
O         -0.59198       -1.00715       -0.94192
H         -0.06384        0.41522       -0.87432
C          0.22587       -3.38163       -0.14737
H          0.12186       -4.06890        0.69310
H         -0.25583       -3.78600       -1.03757
H          1.28156       -3.14893       -0.31842
S         -0.51060        2.31267        0.11897
O         -0.26457        3.68705       -0.25675
O          0.25348        1.38903       -0.89957
O         -1.91266        1.86276        0.21292
H         -2.78775        0.53719       -0.37765
C          0.25961        1.96249        1.68005
H          1.29777        2.28925        1.61709
H         -0.27746        2.53485        2.43734
H          0.18979        0.88672        1.86203
N         -3.34179       -0.29584       -0.67135
H         -3.08109       -0.48981       -1.63718
C         -4.79196       -0.08344       -0.49155
H         -5.33287       -0.97809       -0.79940
H         -4.98158        0.11190        0.56318
H         -5.11467        0.77296       -1.08336
H         -2.96068       -1.10384       -0.10618
H          3.72159       -1.19040       -1.67046
H          2.05456       -0.76374       -1.31376
H          3.34633        1.28101       -1.42322
H          2.85318        1.01344        0.24975
H          5.53238        0.45376       -0.80568
H          5.12710        1.52336        0.35862
H          3.98105       -1.68813        0.68351
H          2.38420       -1.43385        0.92745
C          3.06244       -0.79240       -0.88672
C          3.50145        0.63270       -0.54699
N          3.07060       -1.72578        0.23369
N          4.87835        0.62958       -0.04923
