26
2msa2a_32.log	Energy: -904640.8912335
S         -2.08827        0.15685       -0.32870
O         -1.45790        1.47347       -0.47045
O         -3.04879       -0.24356       -1.35077
O         -2.79136        0.11856        1.08334
H         -3.75997       -0.24731        0.99691
C         -0.81463       -1.06338       -0.17500
H         -0.22727       -1.06567       -1.09452
H         -0.16496       -0.80603        0.66417
H         -1.28958       -2.03231       -0.02235
S          2.78622       -0.39116       -0.00941
O          2.25379       -1.60390       -0.63694
O          2.05844       -0.00022        1.24634
O          2.88341        0.78560       -0.93150
H          1.76319        2.01092       -0.43677
C          4.46216       -0.75157        0.48898
H          4.43357       -1.58218        1.19453
H          5.02338       -1.02611       -0.40459
H          4.88920        0.13669        0.95461
N         -5.21397       -0.77641        0.67858
H         -5.17318       -0.84698       -0.33649
H         -5.95321       -0.12512        0.92280
H         -5.45718       -1.68680        1.05545
N          1.07848        2.30223        0.30382
H          1.19396        3.26729        0.59487
H          1.32745        1.61511        1.04924
H          0.10994        2.10686       -0.00889
