42
2msa2eda_562.log	Energy: -1072743.5422986
S         -2.61253        1.55245       -0.40927
O         -2.49823        1.00836        0.95308
O         -2.97735        2.94588       -0.57180
O         -3.62244        0.64894       -1.21090
H         -3.95110       -0.18364       -0.63710
C         -1.07402        1.25732       -1.24815
H         -0.30804        1.87932       -0.78028
H         -0.80107        0.20735       -1.12748
H         -1.20719        1.52082       -2.29757
S          1.67305        0.18868        1.06014
O          1.17372       -0.88347        0.16416
O          1.80083        1.50028        0.38356
O          2.97808       -0.19381        1.71113
H          4.06568        0.44410        0.76392
C          0.49403        0.36488        2.37985
H         -0.45089        0.70687        1.95072
H          0.37087       -0.60588        2.86164
H          0.88358        1.10026        3.08395
H          5.88718        0.09635       -1.60317
H          5.98592       -0.78774       -0.05530
H          4.74572       -2.07547       -1.86654
H          3.76950       -1.77967       -0.42300
H          3.24156       -0.79917       -3.03137
H          2.31585       -0.69382       -1.65565
H          5.20961        1.57528        0.15583
H          3.85683        1.13690       -0.72677
C          5.30957       -0.31835       -0.77292
C          4.24425       -1.29641       -1.28265
N          4.60368        0.79928       -0.09740
N          3.24543       -0.56229       -2.04907
H         -3.93241       -3.41354        0.57687
H         -4.24487       -2.96364       -1.11723
H         -1.85575       -3.44654       -0.68523
H         -2.11993       -1.80346       -1.27794
H         -0.60430       -2.02467        0.67822
H         -1.83932       -1.03212        0.97485
H         -5.38922       -1.44137        0.26187
H         -4.06140       -1.10114        1.14842
C         -3.76655       -2.64381       -0.18649
C         -2.27003       -2.47068       -0.41185
N         -4.37782       -1.36078        0.21493
N         -1.61350       -2.01058        0.80494
