34
2msa1a1eda_74.log	Energy: -988707.3607125
S         -2.10032       -1.01449       -0.14391
O         -1.45056       -0.20697       -1.19884
O         -2.13365       -0.30760        1.16911
O         -1.54146       -2.39082       -0.02744
H         -0.06748       -2.63934        0.62826
C         -3.80092       -1.24211       -0.62845
H         -4.25893       -0.25703       -0.72228
H         -3.81316       -1.76676       -1.58391
H         -4.30118       -1.82866        0.14209
S          2.59548       -0.25374       -0.23859
O          2.85813       -1.72358       -0.31206
O          3.77997        0.58852       -0.11430
O          1.56445       -0.01075        0.84122
H          0.48840        1.11697        1.16801
C          1.78529        0.15610       -1.77685
H          2.42889       -0.19187       -2.58550
H          0.80666       -0.32654       -1.80349
H          1.67549        1.23986       -1.83178
N          0.86244       -2.73672        1.12028
H          0.95649       -3.65209        1.54902
H          0.91224       -1.99552        1.81976
H          1.66537       -2.51769        0.46194
H         -1.14875        3.60027        1.62727
H          0.63587        3.52774        1.55016
H         -0.28041        4.32834       -0.55916
H          0.51305        2.77541       -0.79877
H         -1.90306        3.24932       -1.70901
H         -1.59819        1.76704       -1.07571
H         -0.28420        1.57085        2.56930
H         -1.18371        1.15003        1.25949
C         -0.29423        3.10333        1.16289
C         -0.36874        3.25785       -0.35026
N         -0.32741        1.67238        1.55700
N         -1.63638        2.76434       -0.86174
