29
2msa1a1ma_13.log	Energy: -929312.2028263
S          1.74747       -1.02379       -0.16058
O          0.65936       -1.67201       -0.94868
O          1.33899       -0.74343        1.23599
O          2.31913        0.16428       -0.84849
C          3.05373       -2.23287       -0.09892
H          3.88460       -1.80465        0.46177
H          2.66734       -3.12303        0.39725
H          3.35254       -2.45905       -1.12235
S         -2.41066       -0.27394       -0.02957
O         -3.84617       -0.24049       -0.20305
O         -1.70494        1.00945        0.11090
O         -1.80544       -1.07445       -1.24160
H         -0.80909       -1.24839       -1.13466
C         -1.98175       -1.26065        1.38720
H         -2.42329       -0.77259        2.25707
H         -2.40973       -2.25316        1.24637
H         -0.89181       -1.29476        1.46959
N          1.18757        2.07050        2.24393
H          0.38571        2.20542        2.85147
H          2.00764        2.41007        2.73522
H          1.30056        1.06266        2.09553
N          0.65429        2.31519       -0.49349
H          1.32224        1.57546       -0.80255
H         -0.28537        1.88537       -0.50125
C          0.72928        3.54704       -1.29665
H         -0.00369        4.26589       -0.92968
H          1.72984        3.97181       -1.21278
H          0.52009        3.31749       -2.34154
H          0.87546        2.45727        0.52952
