42
2msa2eda_605.log	Energy: -1072735.5067888
S          1.46747        2.12366       -0.45842
O          1.89162        3.52148       -0.37541
O          0.06578        1.86763       -0.03502
O          2.39613        1.17586        0.27046
H          1.89522        0.87552        1.69807
C          1.58847        1.61223       -2.16346
H          0.92144        2.24405       -2.75192
H          2.62122        1.75319       -2.48485
H          1.29490        0.56078       -2.21436
S         -3.08619       -0.09874       -0.08707
O         -2.43189       -1.13974       -0.87440
O         -2.84943       -0.02432        1.33918
O         -4.68527       -0.30809       -0.31782
H         -4.81177       -1.16506       -0.74948
C         -2.86095        1.49270       -0.82306
H         -1.80584        1.75708       -0.67416
H         -3.11660        1.41542       -1.87950
H         -3.51640        2.19283       -0.30477
H         -0.27128       -0.07543        3.55564
H         -0.47016        0.85328        2.03186
H         -0.79509       -1.68884        1.78222
H          0.38245       -0.94598        0.69990
H          0.93096       -2.89086        2.70623
H          1.92529       -2.27268        1.51223
H          1.63353        1.33818        3.32513
H          2.06138       -0.25668        2.95873
C          0.11686        0.09500        2.54792
C          0.18415       -1.20577        1.74563
N          1.52149        0.57326        2.66558
N          1.26648       -2.04557        2.26424
H          2.94601       -2.57528       -2.29455
H          2.91496       -3.82156       -1.03957
H          0.74680       -3.77876       -2.07438
H          0.58138       -3.11435       -0.44710
H          0.46698       -1.63251       -2.94336
H         -0.50116       -1.51572       -1.62664
H          3.90198       -1.79581       -0.19259
H          2.53654       -0.95249       -0.46685
C          2.52342       -2.83341       -1.30879
C          1.00614       -2.91933       -1.43758
N          2.89404       -1.88587       -0.26031
N          0.45838       -1.65587       -1.92924
