35
2msa1ma1dma_22.log	Energy: -978636.0310365
S         -2.76781       -0.09085       -0.37227
O         -4.13311        0.32372       -0.07588
O         -2.58326       -1.50063       -0.79211
O         -1.79551        0.23527        0.75459
H         -0.68810       -1.20409        0.92283
C         -2.18853        0.90224       -1.74709
H         -2.77472        0.62820       -2.62491
H         -2.35681        1.95430       -1.50919
H         -1.12948        0.69029       -1.91312
S          2.59312       -0.31196       -0.35557
O          2.34938       -1.68117        0.17773
O          3.17923        0.62521        0.61450
O          1.34180        0.24436       -0.97416
H          0.76431        1.41541        0.07527
C          3.76150       -0.51166       -1.68724
H          4.67730       -0.92657       -1.26564
H          3.33434       -1.19229       -2.42377
H          3.94950        0.46771       -2.12727
N         -0.31807       -2.11872        0.59970
H         -0.88445       -2.25413       -0.24996
C         -0.56727       -3.18875        1.58453
H         -0.20994       -4.13680        1.18309
H         -0.03054       -2.96083        2.50517
H         -1.63807       -3.24797        1.77904
H          0.69745       -2.01060        0.37149
N          0.19098        2.01663        0.72044
C          0.04014        3.36069        0.13511
C          0.78904        2.00766        2.07249
H         -0.72385        1.50050        0.74726
H          1.01965        3.83732        0.07392
H         -0.37839        3.26300       -0.86673
H         -0.62702        3.95982        0.75712
H          1.80565        2.39588        2.01826
H          0.16887        2.60729        2.74104
H          0.83138        0.97813        2.42623
