41
2msa1dma1tma_56.log	Energy: -1027940.9949002
S         -0.42336        1.87624       -0.43805
O         -1.82282        2.37598       -0.55476
O          0.09140        1.21661       -1.64322
O         -0.29950        1.01672        0.79396
H          0.12733       -0.43518        0.81095
C          0.59473        3.30146       -0.12081
H          0.51140        3.97195       -0.97637
H          0.23991        3.78451        0.78924
H          1.62130        2.95329       -0.00161
S         -0.31474       -2.33349       -0.17595
O         -0.12149       -3.71121        0.21736
O          0.36582       -1.42434        0.91385
O         -1.69636       -1.86470       -0.39272
H         -2.60602       -0.51077        0.11923
C          0.60501       -1.98044       -1.65306
H          1.64708       -2.24006       -1.46355
H          0.18860       -2.60130       -2.44723
H          0.49232       -0.91605       -1.87584
N         -3.24883        0.26283        0.38614
C         -3.27188        0.36725        1.86128
C         -4.56523        0.02943       -0.23990
H         -2.80635        1.13253       -0.00577
H         -3.62922       -0.57275        2.28441
H         -2.25397        0.57233        2.19278
H         -3.93265        1.18543        2.15188
H         -4.98668       -0.90195        0.14104
H         -5.22915        0.86284       -0.00572
H         -4.42931       -0.04356       -1.31868
N          4.11626        0.31761        0.36941
C          3.52178        1.10291        1.43617
H          3.98575        0.84184        2.39201
H          3.70622        2.16775        1.25539
H          2.42967        0.94747        1.52782
C          3.54228        0.67196       -0.91666
H          3.71452        1.73472       -1.11830
H          4.03138        0.10034       -1.71188
H          2.45397        0.48772       -0.97467
C          3.98155       -1.10608        0.63064
H          4.46696       -1.67327       -0.17014
H          4.48137       -1.35762        1.57100
H          2.92736       -1.42889        0.70735
