38
2msa1ma1tma_82.log	Energy: -1003276.9643437
S         -1.37664        0.94836       -0.27025
O         -2.58867        1.62722        0.18460
O         -0.65422        0.23808        0.85169
O         -0.40264        1.84252       -0.97510
H          1.00748        1.86644       -0.26122
C         -1.83813       -0.31122       -1.43862
H         -2.53549       -0.98074       -0.92572
H         -2.32229        0.18754       -2.27920
H         -0.93212       -0.82645       -1.76283
S          1.58010       -2.06596       -0.04087
O          2.63499       -1.41937        0.74262
O          1.37476       -1.55208       -1.39273
O          0.23222       -2.08392        0.75619
H         -0.18545       -1.12627        0.79882
C          1.90401       -3.81065       -0.10818
H          2.84576       -3.93722       -0.64285
H          1.98487       -4.18669        0.91128
H          1.08580       -4.29237       -0.64259
N         -4.18440       -0.97617        0.81093
H         -4.49252       -1.59907        1.54886
C         -5.32024       -0.42218        0.07946
H         -6.05331        0.11048        0.70350
H         -4.94437        0.28727       -0.66278
H         -5.84191       -1.22474       -0.45178
H         -3.65411       -0.22206        1.23833
N          1.94259        2.18635        0.13851
C          3.01675        1.61697       -0.71117
H          2.99608        0.53156       -0.61889
H          2.83049        1.90450       -1.74632
H          3.98136        2.00639       -0.37599
C          1.88312        3.66356        0.04328
H          1.72971        3.94062       -0.99973
H          1.03649        4.01639        0.63231
H          2.81512        4.09148        0.41996
C          2.04196        1.72846        1.54772
H          1.13610        2.02850        2.07404
H          2.12796        0.64232        1.55832
H          2.92546        2.18331        2.00329
