25
2msa1ma_43.log	Energy: -893791.5523385
S          2.99742        0.07678        0.03580
O          2.59390       -0.37036        1.36115
O          2.67739       -0.72355       -1.12796
O          4.61571        0.26464        0.08567
H          4.93012       -0.12734        0.91291
C          2.49297        1.75141       -0.24530
H          1.40381        1.72423       -0.33305
H          2.80854        2.35377        0.60586
H          2.95694        2.09182       -1.17089
S         -1.36300       -0.34011       -0.17628
O         -0.56938        0.88326       -0.18103
O         -2.21268       -0.60541       -1.33913
O         -2.26084       -0.38324        1.11788
H         -3.28316       -0.29063        0.84562
C         -0.27497       -1.71502        0.09402
H          0.43370       -1.73609       -0.73548
H          0.25956       -1.54835        1.02978
H         -0.87319       -2.62500        0.12972
N         -4.66517       -0.08550        0.26908
H         -4.56523       -0.55140       -0.63076
C         -4.89663        1.35339        0.07195
H         -5.81207        1.56621       -0.48962
H         -4.95407        1.84311        1.04603
H         -4.04479        1.76978       -0.46946
H         -5.43585       -0.51971        0.76690
