30
2msa1eda_25.log	Energy: -953207.3080410
S         -2.03160       -1.05959       -0.07784
O         -1.46952       -2.22324       -0.77235
O         -2.03666        0.19572       -0.90376
O         -1.37918       -0.80470        1.24375
C         -3.74996       -1.38484        0.25390
H         -3.80598       -2.28218        0.87031
H         -4.17223       -0.52658        0.77595
H         -4.25002       -1.54160       -0.70189
S          0.60638        2.32819       -0.03028
O          1.10700        3.57399       -0.57075
O          1.53377        1.55435        0.81666
O          0.12807        1.41142       -1.21517
H         -0.77067        0.90588       -1.06833
C         -0.87135        2.61653        0.91885
H         -0.58441        3.27616        1.73856
H         -1.60494        3.09861        0.27264
H         -1.23964        1.65796        1.29113
H          1.08660       -2.51913       -0.69273
H          1.21555       -0.82196       -1.17000
H          3.35591       -2.04848       -1.65709
H          3.59224       -0.74860       -0.48505
H          3.46675       -3.60543        0.14825
H          4.60041       -2.50941        0.58158
H          0.29015       -1.24915        1.12009
H          1.88749       -1.74569        1.52250
C          1.61370       -1.58328       -0.49790
C          3.12347       -1.72673       -0.63428
N          1.30923       -1.17420        0.89845
N          3.61074       -2.63469        0.40661
H          1.53360       -0.16628        1.01805
