37
2msa1ma1eda_383.log	Energy: -1013355.4824607
S         -2.62303        0.36084       -0.07173
O         -2.00306        1.65510       -0.36271
O         -2.47027       -0.16359        1.28011
O         -2.18305       -0.70810       -1.13578
H         -1.17268       -0.92341       -1.02976
C         -4.35191        0.46251       -0.46978
H         -4.78778        1.19566        0.20957
H         -4.45173        0.78583       -1.50539
H         -4.79907       -0.51931       -0.31748
S          1.01830       -2.14730       -0.11454
O          1.21267       -3.32067       -0.95673
O          0.26094       -1.02719       -0.78901
O          2.26805       -1.57642        0.47137
H          2.67855       -0.02322        0.20509
C         -0.00119       -2.62630        1.27129
H         -0.91912       -3.06443        0.87795
H          0.55396       -3.36012        1.85622
H         -0.23590       -1.74025        1.86126
N          1.40667        2.22769        1.99783
H          1.60740        2.73290        2.85403
C          0.41341        1.16701        2.22313
H         -0.54543        1.53330        2.60163
H          0.22043        0.66123        1.27382
H          0.81854        0.43109        2.92301
H          1.04559        2.88000        1.30191
H          3.53239        2.55957       -1.07517
H          3.65746        0.94501       -1.81034
H          1.72399        1.96643       -2.76224
H          1.16066        0.71946       -1.64997
H          0.81832        3.56726       -1.38333
H         -0.12950        2.33563       -0.85659
H          4.02159        0.88312        0.55312
H          2.50851        1.52586        0.92390
C          3.05578        1.57753       -1.15182
C          1.63724        1.70213       -1.69975
N          3.06902        0.96104        0.20202
N          0.83392        2.65716       -0.93804
