25
2msa1ma_78.log	Energy: -893786.0818364
S          2.55339       -0.42386        0.08213
O          2.05108       -0.52101        1.43601
O          1.70869       -0.92070       -1.00751
O          3.95949       -1.21665       -0.03946
H          3.78125       -2.13311       -0.29931
C          3.13496        1.21088       -0.25944
H          2.24855        1.84714       -0.21836
H          3.85847        1.47800        0.51050
H          3.58251        1.21377       -1.25246
S         -1.17817        0.97401       -0.11120
O         -2.43915        1.56556       -0.51011
O          0.04673        1.76642       -0.17439
O         -0.98077       -0.32135       -1.03618
H         -0.02744       -0.56303       -1.07838
C         -1.33437        0.27676        1.51334
H         -1.45560        1.11515        2.20143
H         -2.22988       -0.35485        1.51175
H         -0.41772       -0.27045        1.73914
N         -4.30512       -0.75311        0.58000
H         -5.21085       -0.80934        1.03222
C         -4.16796       -1.79054       -0.44207
H         -4.94238       -1.76690       -1.22243
H         -3.19539       -1.68093       -0.92833
H         -4.19405       -2.77498        0.03460
H         -4.22939        0.16805        0.15687
