40
2msa1dma1eda_80.log	Energy: -1038033.4506739
S         -2.27053        1.37992       -0.36317
O         -1.58746        2.64647       -0.74032
O         -3.67733        1.49162        0.01094
O         -1.43673        0.66553        0.68475
H         -1.52494       -0.88492        0.98675
C         -2.17257        0.33398       -1.81200
H         -2.67536        0.85259       -2.62912
H         -1.12090        0.15245       -2.04444
H         -2.68210       -0.60773       -1.60192
S          1.39359       -1.44679       -0.81922
O          0.26736       -2.41667       -0.91838
O          1.69183       -1.08052        0.59222
O          1.21833       -0.25116       -1.68131
H          1.34643        1.29201       -0.68537
C          2.82716       -2.30154       -1.44767
H          2.99947       -3.18559       -0.83365
H          2.62689       -2.58184       -2.48187
H          3.67509       -1.61755       -1.39498
N         -1.46027       -1.93287        1.14142
C         -2.80664       -2.52629        1.05357
C         -0.75978       -2.18121        2.41764
H         -0.85353       -2.25614        0.35215
H         -3.44469       -2.09051        1.82391
H         -3.22980       -2.30601        0.07348
H         -2.74039       -3.60732        1.18894
H         -1.31874       -1.71539        3.23107
H         -0.68067       -3.25701        2.58630
H          0.23683       -1.74585        2.33516
H          2.35853        1.80163        2.36611
H          3.58970        2.96844        1.88144
H          1.35342        3.66879        1.12404
H          2.44903        3.38504       -0.25132
H          0.47074        1.37466        0.69570
H          0.13223        2.43476       -0.46236
H          4.55993        1.02583        1.21886
H          3.15636        0.31231        0.75091
C          2.90643        2.20427        1.49822
C          1.92019        2.91063        0.57764
N          3.66617        1.19523        0.77461
N          0.94421        1.96278       -0.00447
