42
2msa2eda_501.log	Energy: -1072743.1056147
S          1.63957        1.91928       -0.10488
O          2.04234        0.96445       -1.18960
O          2.65442        2.08891        0.93681
O          0.28637        1.55835        0.41236
C          1.44945        3.50076       -0.91826
H          2.41265        3.77743       -1.34776
H          0.69392        3.40596       -1.69883
H          1.14324        4.23107       -0.16862
S         -3.14779        0.03173       -0.22555
O         -2.51867       -0.14799       -1.52565
O         -2.95289       -0.97607        0.80480
O         -4.74734        0.13722       -0.48630
H         -5.18091       -0.55520        0.03320
C         -2.79338        1.65402        0.37942
H         -1.70230        1.72330        0.47530
H         -3.16379        2.36875       -0.35604
H         -3.29338        1.77387        1.34014
H          0.58747       -3.14309       -1.68862
H          0.37247       -2.11470       -3.12405
H          2.72710       -2.90237       -2.78798
H          2.57506       -1.14179       -2.87073
H          3.92202       -2.29416       -0.96307
H          3.01258       -0.97770       -0.63867
H         -0.68868       -0.86033       -1.53511
H          0.20239       -1.47012       -0.25063
C          0.83713       -2.17731       -2.13660
C          2.35160       -2.02395       -2.25389
N          0.26395       -1.12114       -1.26544
N          2.96909       -1.95232       -0.93300
H          0.84924       -0.25510       -1.27864
H          0.85214       -2.83761        3.05848
H          1.82675       -2.91940        1.56262
H          2.51798       -1.07123        3.11455
H          2.09091       -0.52033        1.50433
H          0.95030        0.33250        3.86650
H          0.48544        0.71045        2.34285
H         -0.61831       -3.02667        1.20015
H         -0.72342       -1.50043        1.76123
C          1.09240       -2.32512        2.11581
C          1.67711       -0.94850        2.42327
N         -0.10407       -2.15471        1.28044
N          0.65403       -0.06147        2.98349
