32
2msa1a1dma_142.log	Energy: -953954.8478538
S          1.01556       -1.04917       -0.52748
O          0.44478        0.17505       -1.17327
O          0.20328       -2.26479       -0.79514
O          1.23983       -0.85519        0.93430
H         -0.12059       -1.72551        1.82664
C          2.60112       -1.26959       -1.28936
H          2.43901       -1.38961       -2.36074
H          3.21055       -0.38450       -1.06804
H          3.04643       -2.16966       -0.86402
S         -2.85166        0.57232       -0.03055
O         -2.65901       -0.03760        1.30213
O         -3.27363       -0.32698       -1.08919
O         -1.58956        1.39929       -0.42348
H         -0.76218        0.82996       -0.72714
C         -4.02390        1.89047        0.16385
H         -4.95966        1.43395        0.48722
H         -3.64823        2.58419        0.91516
H         -4.14534        2.38039       -0.80179
N         -1.01975       -2.20696        1.62604
H         -1.24610       -2.93179        2.29913
H         -0.85038       -2.57865        0.66878
H         -1.75918       -1.47249        1.56790
N          4.12186        1.38782        0.00513
C          4.27884        0.77985        1.31981
C          3.03999        2.36365       -0.03270
H          4.99048        1.82975       -0.27506
H          3.36999        0.21830        1.55905
H          5.11974        0.08000        1.30485
H          4.45012        1.51640        2.12439
H          2.08818        1.85402        0.14222
H          3.14659        3.16146        0.72301
H          2.99152        2.82288       -1.02348
