38
2msa2dma_189.log	Energy: -1003271.9647311
S         -2.54662       -1.10468       -0.14378
O         -1.94104       -1.70828       -1.32067
O         -3.97097       -1.34506        0.10886
O         -2.30645        0.45100       -0.17482
H         -3.22344        1.01269       -0.05180
C         -1.61804       -1.60193        1.28651
H         -1.70617       -2.68678        1.35993
H         -0.57368       -1.30292        1.15923
H         -2.05727       -1.12225        2.16146
S          2.11446       -0.05388       -0.10009
O          1.45719       -0.60565        1.09110
O          3.15106       -0.97055       -0.68914
O          2.71858        1.30422        0.12774
H          4.41082        1.12577        0.17306
C          0.87081        0.15974       -1.35346
H          0.41598       -0.80954       -1.56254
H          0.11146        0.83933       -0.96498
H          1.34592        0.56978       -2.24469
N         -4.45772        1.77575        0.10490
C         -5.01062        1.48488        1.43339
C         -5.36614        1.39545       -0.98523
H         -4.24235        2.76689        0.03725
H         -5.14363        0.40381        1.51704
H         -4.30184        1.81165        2.19766
H         -5.97456        1.98334        1.59677
H         -5.51092        0.31365       -0.94445
H         -6.33727        1.89982       -0.90399
H         -4.90437        1.64687       -1.94229
N          5.21812        0.45491        0.08333
C          5.66333        0.04447        1.42911
C          6.27267        0.96591       -0.80639
H          4.66465       -0.33082       -0.35593
H          6.09887        0.90095        1.94642
H          4.79270       -0.31685        1.97773
H          6.40273       -0.75333        1.34159
H          6.73243        1.84963       -0.36039
H          7.03004        0.19465       -0.95741
H          5.82258        1.22957       -1.76355
