42
2msa2eda_563.log	Energy: -1072742.1431721
S          0.80781        2.02109       -0.44805
O          1.57409        3.18014        0.00828
O          0.21494        1.24666        0.69875
O          1.58091        1.10582       -1.34841
H          2.92928        0.56721       -0.90223
C         -0.57504        2.56417       -1.42676
H         -1.27728        3.07700       -0.76660
H         -0.19805        3.23347       -2.20030
H         -1.03048        1.67666       -1.86780
S         -0.66596       -2.02119       -0.43141
O          0.53273       -2.85514       -0.53126
O         -1.02668       -1.19905       -1.57881
O         -0.55972       -1.12754        0.86689
H         -0.26281       -0.16137        0.68087
C         -2.04129       -3.04223        0.02770
H         -2.17731       -3.76890       -0.77464
H         -1.79645       -3.54524        0.96318
H         -2.91393       -2.38632        0.12720
H          4.79738        0.03317        1.36796
H          3.36488        1.10096        1.32823
H          2.98489       -1.21030        2.44541
H          1.85237       -0.78256        1.17190
H          3.81597       -2.87528        1.06905
H          2.43076       -2.65852        0.18939
H          4.63219        0.69858       -0.86728
H          3.91669       -0.83531       -0.76597
C          3.78150        0.15276        0.98181
C          2.89445       -1.03977        1.36781
N          3.84742        0.16567       -0.50308
N          3.26233       -2.19981        0.55803
H         -2.96313        0.03839        1.88137
H         -4.38069        1.09471        1.80348
H         -3.89177        1.57794       -0.57891
H         -2.45882        0.54651       -0.49984
H         -5.19475       -0.42889       -0.14586
H         -4.16739       -0.75855       -1.37136
H         -2.71072        2.47538        2.59560
H         -1.59548        1.95470        1.51745
C         -3.37151        0.94022        1.40009
C         -3.46672        0.68368       -0.09903
N         -2.58690        2.14819        1.64476
N         -4.21335       -0.54577       -0.38002
