32
2msa1a1dma_42.log	Energy: -953967.0333535
S          2.52048       -0.48074        0.02065
O          1.86612       -1.62316        0.67860
O          2.71842        0.71179        0.83210
O          1.77750       -0.13461       -1.31195
H          0.79521        0.18779       -1.11469
C          4.07462       -1.03885       -0.62882
H          3.89110       -1.88792       -1.28618
H          4.53460       -0.21163       -1.16866
H          4.68665       -1.33113        0.22492
S         -1.05551        1.75295       -0.06949
O         -2.28761        2.26544       -0.65786
O         -0.55327        0.51755       -0.80466
O         -1.12703        1.46341        1.38818
H         -0.81300       -0.14067        1.82246
C          0.23158        2.96936       -0.27428
H          0.34522        3.16719       -1.34057
H         -0.08532        3.87084        0.25077
H          1.15352        2.57364        0.15641
N         -0.70329       -1.18379        1.82721
H         -1.40661       -1.54592        1.08997
H         -0.87808       -1.56500        2.75145
H          0.25581       -1.40843        1.51650
N         -2.41547       -1.72107       -0.24551
C         -2.51853       -3.03825       -0.86440
C         -3.71661       -1.10102        0.00972
H         -1.87578       -1.09222       -0.84267
H         -3.07733       -3.01836       -1.81145
H         -1.51770       -3.43312       -1.05789
H         -3.03219       -3.72400       -0.18265
H         -4.33628       -1.04142       -0.89588
H         -4.25933       -1.68501        0.76076
H         -3.56807       -0.08679        0.38819
