35
2msa1a1tma_58.log	Energy: -978617.9274888
S          3.17367       -0.71854       -0.27429
O          4.22282       -1.64577       -0.63228
O          2.73048       -0.69478        1.13407
O          1.93237       -1.01291       -1.19482
H          1.07898       -0.56276       -0.86085
C          3.64438        0.93784       -0.70544
H          4.49142        1.20502       -0.07246
H          3.93274        0.93436       -1.75672
H          2.78784        1.59462       -0.53090
S         -0.40958        1.44662        0.05892
O         -0.23066       -0.01105       -0.29717
O          0.71066        2.27755       -0.39029
O         -0.70732        1.54373        1.52346
H         -0.08612        0.27024        2.21760
C         -1.87945        1.97861       -0.78320
H         -1.68162        1.91929       -1.85420
H         -2.70380        1.31475       -0.50092
H         -2.07174        3.01041       -0.48740
N          0.38736       -0.65030        2.49874
H         -0.20793       -1.41965        2.20064
H          0.55510       -0.70189        3.49972
H          1.29132       -0.70760        1.97263
N         -3.87116       -0.66551       -0.30154
C         -3.25159       -1.22508        0.88610
H         -2.17103       -1.06937        0.81892
H         -3.62645       -0.71230        1.77741
H         -3.45023       -2.30945        0.99655
C         -5.31555       -0.80353       -0.26294
H         -5.71304       -0.31039        0.62915
H         -5.75749       -0.32645       -1.14254
H         -5.63871       -1.86246       -0.24612
C         -3.30814       -1.24940       -1.50880
H         -3.74664       -0.76899       -2.38890
H         -2.22704       -1.08384       -1.52412
H         -3.49904       -2.33705       -1.58020
