35
2msa1ma1dma_160.log	Energy: -978620.9576065
S         -1.34033        1.90916       -0.12932
O         -1.93869        3.10019       -0.71074
O         -0.91155        0.89099       -1.17395
O         -2.17477        1.20889        0.89275
H         -2.24132       -0.37393        0.57617
C          0.16113        2.38365        0.71199
H          0.82676        2.85229       -0.01438
H         -0.11379        3.09793        1.48847
H          0.61493        1.49140        1.14674
S          1.19700       -1.42003       -0.15787
O          0.13117       -2.37482       -0.51775
O          1.10878       -0.87603        1.19512
O          1.24720       -0.26864       -1.21490
H          0.32450        0.27171       -1.21606
C          2.77532       -2.17538       -0.41416
H          2.87004       -2.96400        0.33300
H          2.79541       -2.58794       -1.42270
H          3.53248       -1.39283       -0.28400
N          4.04809        0.84717       -0.29361
H          4.80851        1.32947       -0.75964
C          3.83188        1.38816        1.04835
H          3.57984        2.45881        1.07468
H          3.02116        0.83355        1.52862
H          4.73481        1.23835        1.64685
H          3.21666        0.96566       -0.86547
N         -2.38266       -1.38193        0.28410
C         -3.34482       -1.38499       -0.83821
C         -2.78973       -2.17678        1.45876
H         -1.46611       -1.72835       -0.05465
H         -4.29634       -0.98127       -0.48942
H         -2.94137       -0.74473       -1.62297
H         -3.47695       -2.40393       -1.20586
H         -3.71474       -1.76573        1.86560
H         -2.93929       -3.21704        1.16490
H         -1.99961       -2.11464        2.20709
