32
2msa1a1dma_61.log	Energy: -953965.0335248
S         -2.77033        0.33512        0.06399
O         -3.35971        0.09241        1.37118
O         -2.06561       -0.94469       -0.49904
O         -1.86594        1.49314       -0.03873
H         -0.46705        1.61357        1.16012
C         -4.04783        0.52123       -1.15374
H         -4.66767       -0.37492       -1.13645
H         -4.62910        1.39901       -0.87009
H         -3.57921        0.65945       -2.12735
S          1.41342       -1.65631       -0.07516
O          2.54756       -0.97964        0.58436
O          1.26955       -1.41144       -1.51128
O          0.12715       -1.33330        0.68237
H         -1.15003       -1.13327       -0.04983
C          1.63709       -3.40909        0.16463
H          2.55614       -3.69750       -0.34629
H          1.71176       -3.60493        1.23410
H          0.77943       -3.92446       -0.26795
N          0.41644        1.29797        1.58994
H          0.39825        0.26211        1.53164
H          0.48608        1.60664        2.55424
H          1.26808        1.63363        0.97217
N          2.44117        1.88058       -0.09359
C          3.40992        2.93106        0.20147
C          1.82467        2.01774       -1.41618
H          2.87963        0.95938       -0.02877
H          2.90089        3.89974        0.24120
H          3.87318        2.74421        1.17379
H          4.20320        2.99479       -0.55678
H          1.18352        2.90524       -1.43114
H          2.57595        2.11483       -2.21187
H          1.21686        1.13417       -1.62445
