35
2msa1ma1dma_61.log	Energy: -978628.0597084
S          1.99784       -1.05301        0.16412
O          0.97477       -1.47045       -0.87228
O          1.35363       -0.37641        1.30520
O          3.09745       -0.30669       -0.46584
C          2.68200       -2.58056        0.78072
H          3.12887       -3.11540       -0.05733
H          3.43678       -2.33300        1.52743
H          1.87368       -3.16027        1.22721
S         -2.23835       -0.71303       -0.07726
O         -2.20571        0.18406       -1.23241
O         -1.95810       -0.07766        1.21752
O         -1.34018       -1.95626       -0.29756
H         -0.30200       -1.72007       -0.52269
C         -3.83140       -1.49298        0.02267
H         -4.56454       -0.70601        0.20109
H         -4.02493       -1.99517       -0.92476
H         -3.81586       -2.20348        0.84853
N          1.53387        2.05161       -1.39526
H          2.01443        2.91787       -1.61810
C          0.70321        1.61734       -2.52986
H          1.27754        1.47618       -3.45259
H          0.22236        0.67162       -2.27414
H         -0.08198        2.35601       -2.71413
H          2.25441        1.34867       -1.20600
N         -0.05859        2.05161        0.86139
C          0.72397        2.53115        2.01666
C         -1.22711        2.88430        0.51812
H          0.59000        2.01612        0.00230
H          0.07987        2.58628        2.89630
H          1.52939        1.81789        2.18820
H          1.12676        3.52056        1.79018
H         -1.91170        2.92257        1.36670
H         -0.88436        3.89007        0.26543
H         -1.73156        2.42680       -0.33378
H         -0.37495        1.08860        1.05075
