37
2msa1ma1eda_26.log	Energy: -1013373.9596840
S         -2.28243       -1.10050       -0.32434
O         -1.84938       -2.39125       -0.90346
O         -2.42402        0.00715       -1.28561
O         -1.39052       -0.70750        0.83140
C         -3.88956       -1.36817        0.40097
H         -4.20857       -0.43334        0.86347
H         -4.57366       -1.65873       -0.39681
H         -3.80811       -2.15978        1.14583
S          2.81551        0.32056       -0.25377
O          2.87554       -1.07623       -0.76722
O          2.27714        0.36734        1.13963
O          2.09952        1.25453       -1.15195
C          4.50820        0.87330       -0.17536
H          5.05659        0.20786        0.49134
H          4.92142        0.83507       -1.18337
H          4.51640        1.89455        0.20593
N          0.72557       -2.42763        0.19316
H          0.20550       -1.71013        0.72676
H          0.02096       -2.73203       -0.49560
C          1.19859       -3.52449        1.05830
H          1.71176       -4.26687        0.44755
H          1.89257       -3.11554        1.79220
H          0.34717       -3.98261        1.56158
H          1.53147       -1.94828       -0.28056
H         -0.97764        2.98034        1.93213
H          0.25523        3.71746        0.87268
H         -1.95473        4.51072        0.24611
H         -1.29077        3.52963       -1.06005
H         -3.70706        3.13964       -0.21541
H         -2.80185        1.80085       -0.47994
H          0.72045        1.37758        1.11719
H         -0.80077        0.92287        0.65162
C         -0.59496        3.03153        0.91084
C         -1.69787        3.48497       -0.03646
N         -0.09374        1.68440        0.55339
N         -2.87877        2.64385        0.09034
H          0.29020        1.65033       -0.40329
