37
2msa1ma1eda_294.log	Energy: -1013358.6563596
S          2.59832       -0.86863        0.42256
O          1.37683       -1.41792        1.24721
O          3.73726       -0.78216        1.30995
O          2.18789        0.35381       -0.29062
C          2.86364       -2.12499       -0.80913
H          1.93154       -2.25538       -1.36158
H          3.66538       -1.77725       -1.46107
H          3.14945       -3.04344       -0.29661
S         -1.81957       -1.52778       -0.46777
O         -1.93275       -0.29077       -1.28798
O         -2.40094       -1.39959        0.87639
O         -0.39948       -2.02345       -0.43379
H          0.58491       -1.65319        0.63163
C         -2.71768       -2.79121       -1.34480
H         -2.27225       -2.90681       -2.33276
H         -2.64326       -3.71631       -0.77324
H         -3.75610       -2.46877       -1.42379
N          0.40773        4.08512       -1.03839
H         -0.24451        4.58687       -1.63303
C          1.56339        3.61498       -1.81895
H          2.13138        4.42252       -2.29500
H          2.23322        3.04870       -1.16720
H          1.21275        2.93158       -2.59618
H          0.70732        4.73991       -0.32240
H         -0.74007        0.51010        1.81968
H          0.11269        2.05328        2.02533
H         -2.19773        2.28130        2.79489
H         -1.96029        3.29388        1.38165
H         -3.17156        1.73703        0.07315
H         -3.22494        0.64379        1.27146
H          0.59487        1.07611       -0.08754
H         -1.00780        0.97775       -0.51344
C         -0.69295        1.54883        1.48386
C         -2.03499        2.24989        1.71193
N         -0.32458        1.53541        0.04398
N         -3.19326        1.64370        1.08292
H         -0.23323        2.50677       -0.33712
