30
2msa1eda_115.log	Energy: -953194.7010432
S          2.27211       -0.75459       -0.14823
O          3.09187        0.45475       -0.34185
O          1.46365       -1.15226       -1.31911
O          1.41474       -0.65358        1.09005
C          3.39722       -2.10017        0.18848
H          4.03943       -2.22142       -0.68429
H          3.98829       -1.84282        1.06756
H          2.81587       -3.00533        0.36515
S         -2.38482       -0.65328        0.04280
O         -1.92330        0.06341        1.21633
O         -2.61970        0.06803       -1.20287
O         -3.80212       -1.33949        0.44999
H         -4.44357       -1.12889       -0.24352
C         -1.36562       -2.06682       -0.24882
H         -0.39469       -1.70081       -0.60880
H         -1.25079       -2.59598        0.69680
H         -1.85559       -2.68222       -1.00323
H          0.92532        3.70630        0.78761
H          2.11013        2.41864        0.36474
H          0.80791        3.11690       -1.64673
H          0.50174        1.43918       -1.22749
H         -1.36119        3.65144       -0.95814
H         -1.66621        2.05073       -1.22304
H          0.58309        2.05060        2.39004
H         -0.60198        1.75765        1.25021
C          1.05271        2.67807        0.43791
C          0.33948        2.47004       -0.89605
N          0.41437        1.76751        1.42843
N         -1.08880        2.70865       -0.71113
H          0.78275        0.76517        1.30947
