30
2msa1eda_136.log	Energy: -953187.4082662
S          3.25732       -0.48141        0.17663
O          3.19139        0.96173        0.28479
O          3.68912       -1.28181        1.31304
O          4.26588       -0.84811       -1.05338
H          5.03232       -1.30008       -0.67283
C          1.73360       -1.09528       -0.48019
H          0.95610       -0.85734        0.25133
H          1.51017       -0.56724       -1.40790
H          1.83822       -2.16882       -0.63394
S         -0.96946        1.42256       -0.20337
O         -2.30109        2.04526       -0.08154
O         -0.68355        0.80297       -1.50848
O         -0.75799        0.42206        0.92812
H         -2.01436       -0.25105        1.27472
C          0.25845        2.67956        0.08091
H          0.16058        3.41783       -0.71570
H          0.06320        3.13424        1.05215
H          1.24588        2.21525        0.06309
H         -4.93535       -0.90134        0.78240
H         -4.01935        0.56549        0.28713
H         -4.29164       -1.08582       -1.60570
H         -2.61088       -0.73323       -1.21225
H         -4.03576       -3.21529       -0.63990
H         -2.49775       -2.98574       -1.14520
H         -3.27539       -0.54153        2.41736
H         -2.75309       -1.80020        1.43800
C         -3.97186       -0.51439        0.43629
C         -3.51838       -1.21864       -0.84008
N         -2.95410       -0.79345        1.48642
N         -3.22014       -2.62194       -0.53597
