37
2msa1ma1eda_577.log	Energy: -1013339.7577573
S         -2.81621       -0.96767       -0.04008
O         -3.55791        0.07935       -0.72360
O         -2.17062       -0.66143        1.23172
O         -1.75937       -1.59529       -1.04231
H         -0.81821       -1.47742       -0.72434
C         -3.90158       -2.35923        0.18389
H         -4.71152       -2.03030        0.83581
H         -4.28901       -2.65306       -0.79141
H         -3.33706       -3.16956        0.64420
S          1.72310       -0.57958        0.13982
O          0.76356       -1.58089       -0.34333
O          2.25762        0.36170       -0.84799
O          2.91987       -1.33649        0.80745
H          3.83893       -1.12242        0.28159
C          0.99510        0.30112        1.48823
H          0.16540        0.88039        1.07795
H          0.63344       -0.42678        2.21393
H          1.75535        0.95380        1.91693
N          5.03238       -0.70472       -0.46093
H          5.77431       -1.39774       -0.48842
C          5.51134        0.57625        0.08245
H          6.35714        0.98631       -0.47791
H          4.68453        1.28805        0.05169
H          5.80907        0.43201        1.12293
H          4.68935       -0.57555       -1.41006
H         -2.73598        3.05929       -0.41419
H         -1.69274        4.30951        0.27913
H         -0.69994        3.48859       -1.75490
H          0.31530        3.03342       -0.37362
H         -1.56732        1.19799       -1.68135
H          0.07688        1.13981       -1.75952
H         -2.29573        2.91980        2.04152
H         -1.91081        1.55035        1.24875
C         -1.76947        3.23320        0.08808
C         -0.64585        2.84105       -0.86398
N         -1.65292        2.52808        1.36225
N         -0.71003        1.41657       -1.18161
