40
2msa1dma1eda_390.log	Energy: -1038014.2347087
S          1.11807       -1.30386        1.14194
O         -0.32981       -1.29450        1.53746
O          1.77668       -0.01057        1.36735
O          1.27926       -1.83789       -0.24284
H          0.12619       -1.36831       -1.29723
C          1.89585       -2.49779        2.21069
H          1.77940       -2.15219        3.23790
H          1.40715       -3.46130        2.06743
H          2.95023       -2.55362        1.93932
S         -1.25920        1.95077        0.52490
O         -2.37225        2.85806        0.34664
O         -0.70876        1.26293       -0.64961
O         -1.71008        0.86269        1.58549
H         -1.10058        0.04820        1.58080
C          0.09227        2.77827        1.32436
H          0.48956        3.50150        0.61079
H         -0.29554        3.27100        2.21577
H          0.84629        2.02625        1.56642
N          2.36033        1.50782       -1.35299
C          3.69597        0.96637       -1.17729
C          1.81324        1.23283       -2.66323
H          1.75226        1.12041       -0.63849
H          4.39446        1.48378       -1.84566
H          4.02051        1.13069       -0.14751
H          3.75833       -0.11677       -1.38653
H          2.38623        1.76792       -3.42952
H          1.84593        0.15512       -2.93495
H          0.77847        1.58455       -2.70690
H         -2.24550       -2.14674       -2.92128
H         -1.02716       -3.20842       -2.16916
H         -3.12880       -3.18469       -0.81447
H         -1.78603       -2.46437        0.08854
H         -4.08469       -1.05190       -0.96752
H         -3.12303       -0.68501        0.32160
H         -0.27872       -0.86930       -2.84699
H         -1.15922       -0.32054       -1.54454
C         -1.61046       -2.29355       -2.04379
C         -2.45256       -2.32190       -0.76711
N         -0.67503       -1.14525       -1.95090
N         -3.13298       -1.04370       -0.62536
