38
2msa2dma_52.log	Energy: -1003287.5957911
S         -1.29340        1.72541       -0.22911
O         -0.37320        2.23132        0.80675
O         -2.33782        0.80891        0.30301
O         -0.56491        1.10931       -1.38642
C         -2.16503        3.12078       -0.91111
H         -2.84051        2.75714       -1.68516
H         -2.72063        3.59592       -0.10242
H         -1.42844        3.80697       -1.32918
S          2.55290       -0.03510       -0.09333
O          3.83298       -0.63564       -0.39847
O          1.59928       -0.81109        0.71019
O          1.88360        0.36196       -1.46380
H          0.92616        0.68693       -1.36737
C          2.79139        1.52896        0.71665
H          3.26890        1.32523        1.67601
H          3.44151        2.13503        0.08557
H          1.81053        1.99302        0.85050
N         -0.97028       -1.10672        1.71674
C         -0.57920       -0.33285        2.91563
C         -1.54436       -2.43682        1.99398
H         -1.62984       -0.52658        1.15092
H          0.22878       -0.85554        3.42899
H         -0.24742        0.65206        2.58453
H         -1.44520       -0.23280        3.57184
H         -0.83947       -3.01538        2.59322
H         -2.48282       -2.31648        2.53716
H         -1.71332       -2.92446        1.03493
H         -0.14688       -1.20516        1.10083
N         -1.03750       -1.93676       -1.14744
C         -2.40375       -2.14809       -1.60065
C         -0.09683       -2.90124       -1.69715
H         -0.75995       -0.99397       -1.40910
H         -2.78439       -3.10102       -1.20995
H         -3.03638       -1.34134       -1.22008
H         -2.50095       -2.18150       -2.69904
H         -0.32624       -3.90122       -1.30883
H         -0.12165       -2.95694       -2.79838
H          0.91792       -2.64306       -1.38522
