37
2msa1ma1eda_322.log	Energy: -1013357.0118895
S          2.41104        0.05161       -0.53160
O          2.41396        1.29810        0.27612
O          1.84308        0.19691       -1.87450
O          1.75235       -1.06682        0.24804
C          4.11518       -0.44239       -0.69080
H          4.53105       -0.57901        0.30732
H          4.14503       -1.37444       -1.25531
H          4.64190        0.34911       -1.22445
S         -1.57042       -1.59322       -0.44761
O         -1.99713       -0.97876       -1.69615
O         -1.53990       -0.71354        0.73213
O         -0.20610       -2.33072       -0.59686
H          0.62495       -1.76314       -0.28678
C         -2.63416       -2.96966       -0.08696
H         -3.64423       -2.57418        0.02334
H         -2.58289       -3.66796       -0.92218
H         -2.29355       -3.43630        0.83660
N          0.57889        0.42334        2.79349
H          0.94416       -0.24551        2.11718
C         -0.23111       -0.25591        3.80152
H          0.30085       -1.03890        4.36278
H         -0.61209        0.47537        4.52134
H         -1.09085       -0.71587        3.30723
H          1.38977        0.86308        3.21639
H         -0.13578        2.95984       -1.35934
H         -0.45961        1.23615       -1.59371
H         -2.51678        2.57825       -2.05754
H         -2.74498        1.51072       -0.67419
H         -2.32319        4.40776       -0.54519
H         -3.47080        3.50565        0.18964
H          0.73279        1.79434        0.50390
H         -0.67837        2.59093        1.01298
C         -0.71828        2.10991       -0.99362
C         -2.21092        2.40039       -1.01909
N         -0.30268        1.85725        0.40755
N         -2.50282        3.51024       -0.10762
H         -0.67536        0.95867        0.75676
