22
2msa1a_24.log	Energy: -869136.9024148
S          2.27761       -0.22783       -0.05298
O          2.12017        0.73459        1.10050
O          3.65144       -0.38439       -0.51402
O          1.28756        0.12821       -1.11953
C          1.74468       -1.80597        0.59422
H          2.41899       -2.08032        1.40596
H          0.72184       -1.70527        0.95871
H          1.80757       -2.53844       -0.21163
S         -2.40033       -0.08604       -0.01613
O         -2.08489        1.33575       -0.08382
O         -3.77872       -0.49946        0.16114
O         -1.54563       -0.69761        1.22329
H         -2.16814       -1.08695        1.85512
C         -1.63846       -0.91406       -1.38167
H         -2.11869       -0.52794       -2.28227
H         -0.56719       -0.67341       -1.37219
H         -1.82346       -1.98259       -1.27316
N          0.52614        2.47270        0.06066
H          1.17275        1.84463        0.67317
H          0.76870        2.15387       -0.88397
H         -0.46068        2.22657        0.20997
H          0.69214        3.46623        0.18563
