40
2msa1dma1eda_404.log	Energy: -1038014.1453702
S          1.45602        0.71505        0.34603
O          1.59240       -0.65626       -0.19258
O          0.69892        1.63580       -0.53905
O          2.81599        1.28262        0.67713
H          3.89219        0.40464        0.16179
C          0.57032        0.62674        1.88162
H         -0.39073        0.13898        1.68264
H          1.16692        0.03834        2.57950
H          0.42860        1.64328        2.25231
S         -2.46301       -1.81680        0.09847
O         -3.62905       -2.63004        0.43550
O         -2.14521       -0.72005        1.04829
O         -2.51059       -1.27036       -1.31190
H         -2.11056        0.15887       -1.40759
C         -1.03641       -2.89751        0.10614
H         -0.96079       -3.34045        1.10045
H         -1.19543       -3.67433       -0.64289
H         -0.14988       -2.30254       -0.12294
N          4.64108       -0.29313       -0.22904
C          4.39193       -0.46825       -1.68042
C          4.53895       -1.55291        0.54561
H          5.55483        0.13291       -0.08261
H          3.37429       -0.84454       -1.79261
H          4.47622        0.50280       -2.16872
H          5.11668       -1.16916       -2.09913
H          3.51997       -1.92355        0.42776
H          5.26461       -2.27908        0.17432
H          4.72830       -1.33458        1.59689
H         -2.98422        3.00695       -1.58633
H         -3.86383        1.55378       -1.05468
H         -3.50720        2.87370        0.90633
H         -2.41016        1.50715        1.00971
H         -0.61276        2.99936        0.34540
H         -1.66468        4.26753        0.26512
H         -1.81907        1.32458       -2.59134
H         -0.92456        1.38816       -1.19677
C         -2.91585        2.09402       -0.98602
C         -2.59978        2.44115        0.47261
N         -1.87164        1.21068       -1.58206
N         -1.49681        3.36276        0.69040
