43
2msa1eda1tma_141.log	Energy: -1062682.0662972
S         -1.80286       -1.19483       -1.10078
O         -3.01811       -1.76720       -1.67967
O         -1.52930       -1.61616        0.30588
O         -1.74127        0.30769       -1.19090
H         -1.66193        0.88459        0.33135
C         -0.41517       -1.75720       -2.07430
H         -0.32424       -2.83716       -1.94702
H         -0.62075       -1.51752       -3.11829
H          0.47935       -1.22982       -1.73571
S          1.87581        1.52470       -0.61956
O          3.06933        2.35975       -0.47042
O          1.07223        1.36804        0.62038
O          2.18698        0.17191       -1.22727
H          2.70520       -0.94826       -0.43396
C          0.80094        2.27807       -1.82662
H          0.56883        3.28622       -1.47872
H          1.33608        2.32457       -2.77537
H         -0.10148        1.66670       -1.90405
H          3.38026       -2.16167        2.22753
H          3.08487       -0.44794        1.80744
H          1.06751       -1.55912        2.90076
H          0.76127       -0.87641        1.29722
H          0.86718       -3.69914        1.94826
H         -0.08155       -2.84599        0.89124
H          4.01358       -1.99260       -0.02386
H          2.44089       -2.61066       -0.01838
C          2.78654       -1.47987        1.61180
C          1.28487       -1.67351        1.83134
N          3.03920       -1.79034        0.18129
N          0.86308       -2.95120        1.26463
N         -2.01867        1.35659        1.21381
C         -1.36538        0.75723        2.40093
H         -1.52792       -0.31986        2.35691
H         -0.30003        0.97606        2.34646
H         -1.80889        1.18792        3.30268
C         -1.71029        2.79879        1.07810
H         -0.62573        2.90461        1.03339
H         -2.16078        3.16346        0.15387
H         -2.12250        3.33826        1.93449
C         -3.47765        1.08975        1.20536
H         -3.89623        1.46796        0.27301
H         -3.62788        0.01057        1.24884
H         -3.93964        1.58022        2.06564
