38
2msa1ma1tma_114.log	Energy: -1003276.6566570
S          0.69005        1.59273        0.04614
O         -0.01614        1.24102        1.28670
O          0.44731        0.61074       -1.06291
O          2.17355        1.75123        0.24170
H          2.82813        0.36608        0.07458
C          0.08501        3.15688       -0.52821
H         -0.99159        3.03621       -0.71107
H          0.28012        3.89394        0.25155
H          0.61889        3.40905       -1.44466
S         -1.98440       -1.88348       -0.12856
O         -2.27926       -3.30092       -0.18588
O         -2.79687       -0.93792       -0.88276
O         -0.46090       -1.71867       -0.56948
H         -0.23228       -0.75375       -0.78350
C         -1.95304       -1.35810        1.57225
H         -2.98543       -1.35162        1.92457
H         -1.36030       -2.07722        2.13809
H         -1.50803       -0.36120        1.61738
N         -3.04096        2.16527       -0.69665
H         -3.84408        2.46649       -1.23813
C         -3.35827        2.16969        0.73084
H         -4.15606        1.46905        1.01963
H         -2.45533        1.91460        1.29373
H         -3.66135        3.17614        1.03623
H         -2.83584        1.21307       -0.99190
N          3.28923       -0.60632        0.03007
C          3.19667       -1.08280       -1.37151
H          2.14976       -1.05742       -1.67240
H          3.76968       -0.40836       -2.00849
H          3.59806       -2.09673       -1.43812
C          4.68928       -0.42359        0.47197
H          5.17912        0.28943       -0.19181
H          4.68773       -0.02730        1.48785
H          5.21114       -1.38299        0.44292
C          2.52605       -1.47775        0.96010
H          2.47339       -0.98516        1.93166
H          1.51797       -1.62048        0.56899
H          3.03229       -2.44228        1.04609
