25
2msa1ma_56.log	Energy: -893792.0846924
S          1.22729        1.08744       -0.08226
O          2.47936        1.72592       -0.40927
O          0.66316        0.12799       -1.04819
O          0.16117        2.24761        0.14714
H         -0.75918        1.88231        0.15511
C          1.33621        0.27682        1.48860
H          2.10105       -0.50609        1.37689
H          1.63532        1.02282        2.22514
H          0.36083       -0.15340        1.72691
S         -2.41597       -0.40024        0.09832
O         -2.27334        1.06092        0.16821
O         -1.94788       -1.16324        1.24162
O         -1.74182       -0.91554       -1.23969
H         -0.80110       -0.57400       -1.26579
C         -4.10556       -0.79061       -0.26008
H         -4.40501       -0.24248       -1.15253
H         -4.18201       -1.86753       -0.40803
H         -4.68814       -0.47682        0.60662
N          3.68481       -1.87542        0.64907
H          4.57598       -1.68501        1.09499
C          3.75595       -1.58713       -0.78675
H          4.51011       -2.17407       -1.32933
H          2.77920       -1.77474       -1.23956
H          3.97319       -0.52573       -0.92850
H          3.48018       -2.85626        0.80838
