35
2msa1ma1dma_42.log	Energy: -978630.5053890
S         -1.55338       -1.44521        0.13566
O         -0.94722       -1.04643       -1.16791
O         -2.78647       -0.71275        0.45679
O         -0.54837       -1.36783        1.24784
C         -1.96735       -3.17249       -0.01694
H         -2.69820       -3.27525       -0.81927
H         -1.05655       -3.72508       -0.24866
H         -2.38796       -3.50263        0.93295
S          2.47979       -0.23986       -0.10483
O          3.89281       -0.03163        0.13548
O          1.57195        0.90831       -0.03931
O          1.98273       -1.35029        0.89829
H          0.97079       -1.34705        1.00552
C          2.26247       -1.01045       -1.69472
H          2.61631       -0.30384       -2.44696
H          2.86335       -1.91981       -1.71434
H          1.19841       -1.22431       -1.81841
N         -0.90396        1.67985        1.73736
H         -1.80374        1.71785        2.20739
C          0.07249        2.56870        2.37661
H          0.21156        2.36364        3.44470
H          1.03220        2.44474        1.87131
H         -0.24804        3.60858        2.26419
H         -0.60121        0.70648        1.80105
N         -1.15416        1.77411       -0.99199
C         -2.58872        1.94877       -1.29811
C         -0.27082        2.74917       -1.65766
H         -1.02764        1.81788        0.08436
H         -2.74763        1.85866       -2.37457
H         -3.14141        1.16936       -0.77159
H         -2.90657        2.93763       -0.96066
H         -0.38976        2.67103       -2.74063
H         -0.54563        3.75574       -1.33550
H          0.75747        2.53246       -1.37191
H         -0.88331        0.80012       -1.22429
