34
2msa1a1eda_303.log	Energy: -988691.3776007
S          0.94752       -2.25845        0.06706
O          0.80465       -3.64683       -0.30831
O          0.08977       -1.39664       -0.93165
O          2.31121       -1.69754        0.13312
H          3.11612       -0.36936       -0.48761
C          0.18775       -1.97247        1.64609
H         -0.82038       -2.38552        1.60645
H          0.78841       -2.49813        2.38932
H          0.17264       -0.89465        1.82862
S          0.75717        1.91368        0.24453
O          2.16041        2.33981        0.53324
O          0.07677        1.25510        1.36755
O          0.75502        1.05803       -1.00166
H          0.33361       -0.40292       -0.91528
C         -0.15044        3.38473       -0.16353
H         -0.05687        4.06904        0.68056
H          0.28832        3.81857       -1.06197
H         -1.19789        3.10267       -0.30938
N          3.53620        0.52639       -0.82802
H          3.19559        0.68885       -1.77397
H          4.55117        0.48845       -0.80665
H          3.13865        1.30741       -0.22077
H         -3.55939        0.98702       -1.58915
H         -1.86039        0.66785       -1.27394
H         -3.02633       -1.45342       -1.33463
H         -2.50163       -1.14193        0.32127
H         -5.24106       -0.76213       -0.65610
H         -4.73324       -1.79265        0.50338
H         -3.79133        1.49710        0.76061
H         -2.17936        1.32985        0.97438
C         -2.85658        0.63754       -0.82046
C         -3.19601       -0.80902       -0.45812
N         -2.89340        1.57967        0.29220
N         -4.55463       -0.88892        0.08115
