26
2msa2a_66.log	Energy: -904634.1161330
S          2.19004        0.15638       -0.19480
O          1.43863       -0.87408       -0.89497
O          3.00477        1.07895       -0.98714
O          3.12360       -0.52644        0.89062
H          4.11050       -0.34517        0.66897
C          1.07601        1.07975        0.83050
H          0.34389        1.54926        0.17105
H          0.56481        0.38651        1.50004
H          1.65301        1.82273        1.38023
S         -2.25172       -0.45002        0.17742
O         -1.65433       -0.70410        1.47789
O         -2.06115        0.87575       -0.42041
O         -3.80789       -0.74603        0.23968
H         -4.33999        0.11851        0.06749
C         -1.69595       -1.69234       -0.95909
H         -0.61452       -1.56759       -1.05356
H         -1.94215       -2.66697       -0.53773
H         -2.19673       -1.53605       -1.91411
N         -4.97105        1.56974       -0.23515
H         -5.33458        2.04366        0.58532
H         -5.66369        1.63549       -0.97343
H         -4.12581        2.05227       -0.53539
N          5.58443        0.06826        0.14006
H          6.09516       -0.68491       -0.30881
H          6.20668        0.52922        0.79528
H          5.30719        0.73828       -0.57536
