34
2msa1a1eda_259.log	Energy: -988693.5498879
S          2.39292       -0.91377       -0.16379
O          1.68828       -0.78960       -1.45394
O          1.53662       -1.50095        0.90459
O          3.03822        0.36215        0.27558
C          3.74186       -2.05998       -0.39967
H          3.32211       -3.01118       -0.72795
H          4.40842       -1.65132       -1.15939
H          4.26311       -2.17612        0.55057
S         -2.45155       -1.03224       -0.07802
O         -2.67577       -1.14210        1.35995
O         -2.19283        0.26773       -0.66281
O         -3.78931       -1.61991       -0.79454
H         -4.39821       -1.90083       -0.09668
C         -1.22182       -2.18879       -0.60127
H         -0.28890       -1.92637       -0.08740
H         -1.55596       -3.18728       -0.31951
H         -1.09408       -2.08843       -1.67864
N         -0.13258        0.43862        2.41959
H          0.06774        0.61061        3.39965
H          0.45647       -0.34314        2.11273
H         -1.09869        0.12446        2.35483
H          1.04071        2.54544       -1.52070
H          0.01240        1.19462       -1.02975
H         -1.38483        3.17512       -1.61844
H         -1.56320        2.75172        0.08032
H          0.00483        5.00113       -0.95913
H         -1.14472        5.01035        0.20080
H          1.92409        1.60584        0.44753
H          1.19223        3.11237        0.85179
C          0.32421        2.20515       -0.76767
C         -0.85969        3.15191       -0.65547
N          1.03134        2.15409        0.53441
N         -0.39002        4.46266       -0.19481
H          0.46431        1.63324        1.26784
