40
2msa1dma1eda_306.log	Energy: -1038020.1673903
S         -2.48645       -0.31110       -0.61092
O         -2.49544       -1.00849        0.69290
O         -1.53767       -0.91385       -1.58531
O         -2.29404        1.16322       -0.46891
C         -4.11134       -0.50177       -1.31880
H         -4.29989       -1.56741       -1.44969
H         -4.83358       -0.06264       -0.63051
H         -4.12709        0.01431       -2.27871
S          0.78184        2.34110        0.36559
O          1.72655        3.43584        0.44156
O          1.31116        0.99239        0.13401
O         -0.26407        2.69447       -0.75851
H         -1.03428        2.03468       -0.75682
C         -0.20935        2.28247        1.84395
H         -0.62501        3.27646        2.00881
H         -1.00002        1.54442        1.69751
H          0.45177        1.98985        2.65994
N          3.17927       -1.62181       -1.25078
C          4.04621       -1.01255       -0.23923
C          2.88195       -0.70181       -2.35433
H          3.62582       -2.45546       -1.61987
H          3.52052       -0.16482        0.20927
H          4.26731       -1.74407        0.54295
H          4.99425       -0.64627       -0.65940
H          2.32686        0.15242       -1.95726
H          3.79026       -0.32804       -2.84810
H          2.25766       -1.20788       -3.09517
H         -0.94209       -2.93582        0.48301
H          0.63120       -3.75213        0.32704
H         -0.15350       -3.47587        2.70572
H          1.41937       -2.71685        2.41591
H         -1.09931       -1.19304        2.30656
H          0.01216       -1.13754        3.53841
H         -0.05424       -1.40978       -0.80999
H          0.66691       -0.85657        0.55579
C          0.12745       -2.85190        0.68574
C          0.34982       -2.64948        2.18223
N          0.62590       -1.67772       -0.06840
N         -0.11781       -1.32014        2.55139
H          1.58675       -1.79882       -0.48886
