43
2msa1eda1tma_74.log	Energy: -1062681.8272098
S          1.35485        2.08630       -0.03639
O          1.62211        2.13453       -1.47492
O          2.29989        1.30079        0.77682
O         -0.06615        1.61159        0.26267
C          1.38729        3.76267        0.57524
H          0.65281        4.34434        0.01790
H          1.14893        3.74923        1.63871
H          2.39099        4.15537        0.40952
S         -2.67638       -0.09652       -0.73386
O         -3.16113        0.06890        0.63515
O         -1.79273       -1.23919       -0.97393
O         -2.01896        1.22671       -1.25696
H         -1.17375        1.46174       -0.70315
C         -4.06088       -0.18658       -1.84091
H         -4.61449       -1.08909       -1.58032
H         -4.67416        0.70206       -1.69584
H         -3.68144       -0.24446       -2.86062
H          1.02540       -2.10850        2.68028
H          1.58261       -0.41290        2.52354
H         -0.22863       -0.73698        4.29296
H         -0.65867        0.42159        3.03317
H         -2.10356       -1.83389        3.70454
H         -2.31663       -0.94884        2.33252
H          1.11628       -1.45455        0.32306
H         -0.50038       -1.63531        0.84485
C          0.73339       -1.09003        2.41043
C         -0.47584       -0.64206        3.23123
N          0.35477       -1.08809        0.98359
N         -1.63757       -1.46110        2.88907
H          0.14968       -0.11557        0.68729
N          2.17875       -1.96472       -0.89482
C          1.65230       -1.30087       -2.09088
H          0.59521       -1.55407       -2.21468
H          1.73748       -0.21680       -1.98099
H          2.20359       -1.60728       -2.99505
C          3.53926       -1.51841       -0.59854
H          3.53375       -0.43945       -0.42828
H          3.89511       -2.01081        0.31169
H          4.23379       -1.75958       -1.42022
C          2.10175       -3.41512       -1.02458
H          2.45308       -3.89003       -0.10347
H          1.06336       -3.71298       -1.19807
H          2.71456       -3.78663       -1.86284
