44
2msa2tma_29.log	Energy: -1052602.9665229
S          1.89441       -0.80360       -1.21256
O          1.09169       -0.08478       -2.20784
O          1.42487       -2.14880       -0.83866
O          2.09884        0.03453        0.04595
C          3.53354       -0.98586       -1.89393
H          3.44645       -1.57563       -2.80688
H          3.92599        0.00681       -2.11511
H          4.16016       -1.49733       -1.16326
S         -0.22856        2.54074        0.22346
O         -0.60035        3.81193        0.80927
O         -0.69212        1.30526        0.86590
O          1.35032        2.49657        0.14012
H          1.67372        1.54098        0.04238
C         -0.73147        2.49094       -1.47998
H         -1.82185        2.45223       -1.49407
H         -0.36903        3.39986       -1.96013
H         -0.29428        1.59857       -1.93497
N         -3.11882       -1.31116       -0.41352
C         -2.05383       -1.11716       -1.38510
H         -1.31397       -0.41646       -0.99277
H         -1.54158       -2.06233       -1.58424
H         -2.42943       -0.71772       -2.34720
C         -4.08373       -2.28962       -0.88003
H         -3.58314       -3.24378       -1.07035
H         -4.85077       -2.45139       -0.11609
H         -4.58893       -1.97443       -1.81413
C         -3.76191       -0.04779       -0.09479
H         -4.53152       -0.20132        0.66835
H         -3.01961        0.65312        0.29819
H         -4.24490        0.41227       -0.98013
N          0.67146       -1.13163        2.09448
C          1.70046       -2.17230        2.34201
H          1.82491       -2.74282        1.42137
H          2.63945       -1.68166        2.59994
H          1.36944       -2.81293        3.16225
C          0.50704       -0.22146        3.25411
H          1.46901        0.24377        3.47314
H         -0.21762        0.54556        2.98524
H          0.16586       -0.80171        4.11435
C         -0.61945       -1.73701        1.66774
H         -1.33562       -0.94695        1.45362
H         -0.43622       -2.30922        0.75898
H         -0.98610       -2.38178        2.46969
H          1.03761       -0.56662        1.29269
