37
2msa1ma1eda_542.log	Energy: -1013348.3296371
S          1.49047       -1.27861       -0.78328
O          1.67101        0.03196       -1.41169
O          0.56693       -2.20749       -1.41998
O          1.10332       -1.09166        0.73659
H          0.10532       -0.82752        0.87126
C          3.08573       -2.02783       -0.58415
H          3.50484       -2.14062       -1.58468
H          3.69529       -1.36667        0.03993
H          2.94623       -2.99988       -0.11140
S         -2.51677       -0.73320        0.51966
O         -3.67821       -0.44973        1.35632
O         -1.22339       -0.33143        1.18261
O         -2.58933       -0.13042       -0.85186
H         -2.15008        1.31087       -1.04313
C         -2.40454       -2.48784        0.24304
H         -2.30817       -2.97196        1.21537
H         -3.32186       -2.80425       -0.25380
H         -1.53310       -2.67996       -0.38621
N          3.69677        0.20823        1.82759
H          2.79456       -0.22567        2.00031
C          3.51157        1.53431        1.24376
H          2.93362        2.23222        1.86966
H          4.48819        1.98572        1.04600
H          2.99500        1.42783        0.28578
H          4.18661        0.26655        2.71327
H         -1.51036        3.98259        0.13971
H         -1.90701        2.45232        0.97506
H          0.59991        3.06805        0.99838
H          0.20972        1.46637        0.37898
H          1.26434        3.66782       -1.14409
H          1.29849        2.03611       -1.43267
H         -2.75140        2.84348       -1.44467
H         -1.14500        2.49493       -1.82220
C         -1.36698        2.89879        0.13812
C          0.12255        2.53390        0.17023
N         -1.91133        2.36087       -1.13693
N          0.71926        2.81558       -1.13279
