41
2msa1dma1tma_59.log	Energy: -1027943.2163151
S          0.47622       -1.95380        0.06401
O          1.27125       -3.13713        0.30768
O          0.70700       -0.98113        1.28452
O         -0.97551       -2.14768       -0.12345
H         -2.38264       -1.21684       -0.17509
C          1.09249       -1.05803       -1.33561
H          2.13597       -0.78452       -1.13000
H          1.01491       -1.73161       -2.19073
H          0.46391       -0.17387       -1.47437
S         -1.29986        1.87471        0.17169
O         -2.65403        1.68622        0.76783
O         -1.20469        1.29508       -1.18468
O         -0.21340        1.39696        1.07694
H          0.26961       -0.07047        1.17730
C         -1.05471        3.63282        0.03985
H         -1.82774        4.03258       -0.61650
H         -1.13082        4.06437        1.03767
H         -0.06391        3.80262       -0.38199
N         -3.32842       -0.78226       -0.13045
C         -4.18235       -1.60557        0.74816
C         -3.83912       -0.60380       -1.50618
H         -3.17287        0.16789        0.29173
H         -4.30138       -2.59711        0.30908
H         -3.69837       -1.69403        1.72057
H         -5.15573       -1.12563        0.86027
H         -3.91773       -1.57814       -1.99093
H         -4.81910       -0.12574       -1.46397
H         -3.13376        0.03449       -2.03894
N          3.85458        0.32300       -0.25099
C          3.16574        1.59248       -0.08251
H          2.97504        2.04109       -1.06320
H          2.20351        1.43729        0.41376
H          3.75486        2.31195        0.51792
C          4.07693       -0.32798        1.03194
H          3.12075       -0.48773        1.53543
H          4.54406       -1.30432        0.87438
H          4.73158        0.27097        1.69353
C          5.09915        0.48970       -0.97919
H          5.57105       -0.48480       -1.13564
H          4.90234        0.93682       -1.95854
H          5.81783        1.13888       -0.44233
