41
2msa1dma1tma_22.log	Energy: -1027951.7410250
S         -2.24897        0.86983       -0.67304
O         -3.54352        1.54163       -0.56355
O         -2.29311       -0.55117       -1.09605
O         -1.41509        0.99142        0.58723
H         -1.43097       -0.62226        1.18497
C         -1.31397        1.72105       -1.93851
H         -1.85429        1.59726       -2.87780
H         -1.25980        2.78057       -1.68311
H         -0.32271        1.26712       -1.99952
S          1.73829       -1.29622       -0.90180
O          1.36376       -1.55137        0.53198
O          3.06499       -1.79572       -1.24956
O          1.53537        0.15882       -1.22292
H          1.43501        1.11294        0.02972
C          0.52460       -2.14683       -1.89242
H          0.56377       -3.20759       -1.64029
H         -0.45792       -1.71015       -1.68881
H          0.79347       -2.00018       -2.93911
N         -1.12528       -1.56503        1.53579
C         -2.02705       -2.63337        1.05524
C         -0.98374       -1.52977        3.00216
H         -0.17300       -1.66280        1.09821
H         -2.99897       -2.52560        1.53967
H         -2.15556       -2.50966       -0.01817
H         -1.58999       -3.60346        1.29934
H         -1.95621       -1.33401        3.45682
H         -0.59520       -2.48705        3.35398
H         -0.28829       -0.73766        3.27640
N          1.70020        1.83151        0.77350
C          3.17323        1.94943        0.65390
H          3.61756        0.97005        0.83436
H          3.41628        2.26321       -0.36102
H          3.53972        2.67812        1.38081
C          1.00483        3.09939        0.45059
H          1.26150        3.38634       -0.57004
H         -0.06795        2.92022        0.53259
H          1.32610        3.87468        1.15064
C          1.29674        1.30825        2.09847
H          0.20817        1.25260        2.11058
H          1.72741        0.31208        2.21225
H          1.66126        1.98435        2.87630
