37
2msa1ma1eda_345.log	Energy: -1013356.5708758
S         -2.13301       -1.27757        0.24316
O         -1.79135       -2.16157       -0.89984
O         -2.77639       -0.00934       -0.10978
O         -0.91414       -1.08458        1.12243
H         -0.32032        0.21567        1.39939
C         -3.27662       -2.19661        1.25623
H         -4.16718       -2.39195        0.65835
H         -2.79982       -3.12952        1.55632
H         -3.52328       -1.58842        2.12669
S          1.26558        1.51934        0.60021
O          2.60218        1.19996        1.09771
O          0.18012        1.09708        1.64039
O          0.93465        0.95947       -0.72510
H          0.84108       -0.77475       -0.95430
C          1.03010        3.26840        0.54168
H          0.00019        3.43045        0.18875
H          1.19039        3.66163        1.54583
H          1.77165        3.66450       -0.15325
N         -1.93621        2.91236       -0.67484
H         -2.14895        1.99277       -0.29004
C         -1.69168        2.77523       -2.11094
H         -2.51116        2.29277       -2.66211
H         -1.51445        3.76179       -2.55189
H         -0.78825        2.17674       -2.25599
H         -2.75876        3.48441       -0.51354
H          2.17897       -3.37930       -1.44331
H          2.08803       -2.04082       -2.61379
H          4.26258       -2.05036       -1.26639
H          3.33397       -0.55714       -1.11067
H          3.89169       -2.42403        0.97282
H          3.27641       -0.88782        1.06262
H          0.00566       -2.20167       -1.16435
H          1.02106       -1.97894        0.13109
C          2.14247       -2.29258       -1.55273
C          3.33824       -1.62338       -0.86227
N          0.92175       -1.80810       -0.87843
N          3.21641       -1.78123        0.58264
