32
2msa1a1dma_15.log	Energy: -953973.3016774
S         -2.44435       -0.17028       -0.05925
O         -1.54625        0.84198       -0.61243
O         -3.76465        0.23440        0.37837
O         -1.73689       -0.86600        1.17667
C         -2.56598       -1.49294       -1.24393
H         -3.00924       -1.07465       -2.14802
H         -1.55746       -1.86449       -1.43352
H         -3.20315       -2.26995       -0.82194
S          1.63668       -1.27471       -0.03608
O          2.15879       -0.52743        1.12850
O          1.53564       -0.44162       -1.26097
O          0.35843       -1.99420        0.26840
H         -0.85467       -1.28824        0.88254
C          2.80552       -2.57038       -0.39836
H          3.76632       -2.10399       -0.61659
H          2.87816       -3.21450        0.47790
H          2.44208       -3.12841       -1.26113
N          0.20186        1.47971        2.20374
H          0.89283        0.72869        2.25589
H         -0.71240        1.03394        2.21608
H          0.28107        2.05233        3.03720
N          0.99430        2.16073       -0.39322
C          0.26363        3.19503       -1.15007
C          2.42108        2.46891       -0.16381
H          0.54666        2.00112        0.55672
H          0.72771        3.32107       -2.13011
H         -0.77026        2.87302       -1.26037
H          0.30931        4.13735       -0.60067
H          2.92625        2.58142       -1.12448
H          2.49927        3.39534        0.40862
H          2.85724        1.63765        0.39130
H          0.94379        1.23811       -0.86918
