37
2msa1ma1eda_03.log	Energy: -1013376.7721250
S          2.79194        0.16457       -0.24752
O          2.49894        1.17994       -1.28851
O          2.96253       -1.21374       -0.77070
O          1.78706        0.20854        0.86172
C          4.35697        0.62637        0.47168
H          4.60825       -0.10110        1.24349
H          5.10553        0.62081       -0.32070
H          4.25465        1.62364        0.89967
S         -2.29882       -0.89802       -0.40818
O         -1.72078       -0.52057        0.90920
O         -1.74859       -2.18933       -0.89903
O         -2.18671        0.20577       -1.39833
C         -4.04467       -1.16702       -0.16700
H         -4.16878       -1.96813        0.56180
H         -4.48506       -0.23989        0.20094
H         -4.48130       -1.44594       -1.12601
N          0.68734       -2.33727        0.36397
H          0.66105       -1.43280        0.85922
H         -0.17616       -2.37603       -0.22347
C          0.75265       -3.47131        1.30343
H          0.79399       -4.40393        0.74121
H          1.64339       -3.37503        1.92418
H         -0.13977       -3.45997        1.92886
H          1.53212       -2.24709       -0.23001
H          0.11415        3.75715        0.21611
H         -0.85483        3.62544       -1.27643
H         -2.24699        4.10316        0.75104
H         -2.70284        2.59147       -0.04596
H         -2.20837        2.72913        2.55359
H         -1.76107        1.38868        1.70884
H         -0.80735        1.20564       -0.98999
H          0.78673        1.80323       -1.07127
C         -0.65002        3.17446       -0.30257
C         -1.91547        3.08102        0.54530
N         -0.09870        1.81960       -0.53219
N         -1.62506        2.39512        1.79791
H          0.16130        1.36864        0.35842
