37
2msa1ma1eda_437.log	Energy: -1013352.5605444
S         -1.32959        1.67403        0.16012
O         -2.32490        1.25352        1.15712
O         -1.49132        1.12200       -1.18934
O          0.07306        1.39820        0.70696
C         -1.40429        3.45118        0.02720
H         -2.39598        3.70975       -0.34530
H         -1.23878        3.88047        1.01512
H         -0.63706        3.77633       -0.67593
S          2.89779       -0.06422       -0.35644
O          2.48068       -1.02001       -1.37609
O          2.72688       -0.46559        1.04170
O          2.22697        1.33624       -0.59057
H          1.30894        1.39093       -0.11852
C          4.59711        0.36384       -0.64104
H          5.17422       -0.55558       -0.53889
H          4.68485        0.76381       -1.65094
H          4.89918        1.09933        0.10348
N         -3.71113       -1.02544       -0.55790
H         -4.02797       -0.37224        0.15257
C         -4.82747       -1.48561       -1.37690
H         -5.38181       -0.68561       -1.89172
H         -4.45767       -2.17868       -2.13904
H         -5.53614       -2.03964       -0.75339
H         -3.04725       -0.49217       -1.11536
H         -1.27806       -2.70866        1.94115
H         -1.97543       -1.19020        1.29901
H         -1.45226       -2.78381       -0.54361
H         -0.48522       -1.32564       -0.67272
H          0.49396       -3.96679       -0.04241
H          1.29990       -2.65976       -0.65753
H         -0.04456       -0.99618        2.96127
H          0.91862       -1.54580        1.70025
C         -1.09007       -1.82489        1.32617
C         -0.63534       -2.22957       -0.07251
N          0.03555       -1.06883        1.95044
N          0.62262       -2.96616        0.03328
H          0.08733       -0.09850        1.55697
