32
2msa2ma_102.log	Energy: -953960.1444667
S         -2.66986        0.21710       -0.10349
O         -2.26139        1.51562        0.46166
O         -2.68752       -0.91452        0.81152
O         -1.82263       -0.10086       -1.37585
H         -0.80978       -0.29798       -1.14239
C         -4.26946        0.42824       -0.84133
H         -4.95897        0.68255       -0.03598
H         -4.21088        1.23319       -1.57304
H         -4.55300       -0.51298       -1.31134
S          1.18965       -1.35954        0.17615
O          2.55816       -1.73552       -0.17177
O          0.56462       -0.46582       -0.87403
O          1.04708       -0.72726        1.51913
H          0.68995        0.83873        1.45409
C          0.18691       -2.83059        0.21652
H          0.24046       -3.30091       -0.76571
H          0.59892       -3.49068        0.98027
H         -0.83620       -2.54226        0.46579
N          3.94399        1.06273        0.03309
H          4.89103        1.27315        0.32973
C          3.83327        1.14406       -1.42451
H          4.54872        0.51325       -1.96970
H          2.82863        0.82715       -1.71741
H          3.97380        2.18133       -1.74795
H          3.74435        0.10684        0.32096
N          0.35840        1.84461        1.37970
H         -0.66221        1.80001        1.21012
C          1.04225        2.54028        0.25797
H          0.75683        3.59264        0.25604
H          2.12168        2.40102        0.37014
H          0.72215        2.05844       -0.66478
H          0.53683        2.29908        2.27200
