34
2msa1a1eda_109.log	Energy: -988704.4219162
S         -0.13075       -2.03401       -0.35515
O          0.38233       -1.36840       -1.56375
O         -1.58623       -2.28765       -0.35654
O          0.27160       -1.29549        0.90075
C          0.67178       -3.62508       -0.24274
H          0.40526       -4.19832       -1.13110
H          1.74941       -3.46409       -0.19749
H          0.31840       -4.12497        0.65920
S          2.44701        1.30444        0.19835
O          3.52978        2.13441        0.68106
O          1.08398        1.86034        0.22190
O          2.46430       -0.04147        1.01123
H          1.57437       -0.55220        0.94476
C          2.78433        0.79277       -1.46971
H          2.76850        1.69001       -2.08986
H          3.77334        0.33450       -1.48328
H          2.00934        0.08225       -1.76844
N         -2.44807       -0.93282        2.12641
H         -2.44809       -1.61813        1.36692
H         -3.28340       -1.05004        2.68920
H         -1.63885       -1.16137        2.69722
H         -1.51457        1.62017       -1.49116
H         -2.00605       -0.03209       -1.06849
H         -3.97303        1.31829       -1.83733
H         -4.15253        0.79777       -0.16030
H         -3.41069        3.50142       -1.01503
H         -4.62761        3.04454       -0.02280
H         -0.54200        1.23284        0.55280
H         -1.91155        2.13561        0.88933
C         -2.11757        1.02029       -0.80452
C         -3.57752        1.45339       -0.82241
N         -1.57657        1.22361        0.56215
N         -3.68323        2.82152       -0.31257
H         -1.92756        0.46872        1.22176
