40
2msa1dma1eda_507.log	Energy: -1038009.6792284
S          1.32063       -0.53166        0.92402
O          0.92389       -0.58513       -0.50511
O          1.42015        0.83239        1.46820
O          2.60203       -1.31651        1.13168
H          3.43579       -1.29042       -0.05166
C          0.09190       -1.41262        1.86103
H         -0.88339       -0.95001        1.68140
H          0.08617       -2.44845        1.52018
H          0.36812       -1.35660        2.91422
S         -3.33416       -0.83278       -0.40566
O         -4.64955       -1.46750       -0.37724
O         -2.84125       -0.30812        0.89392
O         -3.22711        0.25663       -1.45864
H         -2.70222        1.47868       -0.88693
C         -2.15276       -2.06471       -0.93539
H         -2.17680       -2.87917       -0.20951
H         -2.46189       -2.42641       -1.91664
H         -1.16149       -1.60733       -0.97681
N         -2.34195        2.41591       -0.42295
C         -1.01453        2.16642        0.18938
C         -3.36730        2.85634        0.54801
H         -2.25603        3.09889       -1.17325
H         -1.15322        1.45435        0.99944
H         -0.35320        1.71469       -0.54960
H         -0.59080        3.09677        0.57218
H         -3.49570        2.04874        1.27025
H         -3.04412        3.77366        1.04524
H         -4.30801        3.01934        0.02099
H          4.34483        0.20451       -2.52382
H          2.74513        0.25283       -1.71231
H          4.21382        2.20345       -1.04753
H          3.74270        1.18950        0.31614
H          6.39530        1.34695       -0.89053
H          5.97113        1.19819        0.68351
H          3.89886       -1.93913       -1.59015
H          5.05870       -1.17625       -0.64172
C          3.82257        0.15762       -1.56330
C          4.34878        1.21392       -0.59467
N          4.07932       -1.17165       -0.94860
N          5.74055        0.90264       -0.25698
