34
2msa1a1eda_23.log	Energy: -988714.1177721
S          2.74356       -0.30923        0.12086
O          2.59346        0.43004        1.39117
O          1.75373        0.14252       -0.91082
O          2.71630       -1.79050        0.26382
C          4.35967        0.08944       -0.51796
H          4.41997        1.16974       -0.65047
H          5.09827       -0.25030        0.20833
H          4.49074       -0.42449       -1.47018
S         -2.31795       -0.97932        0.22885
O         -2.05613       -0.17862        1.45026
O         -1.95347       -2.41537        0.36522
O         -1.68140       -0.36925       -0.97519
C         -4.08037       -0.93035       -0.02709
H         -4.55918       -1.38452        0.84054
H         -4.37432        0.11536       -0.12440
H         -4.31328       -1.48824       -0.93417
N          0.40051       -2.45733       -1.01134
H          1.28532       -2.39645       -0.45135
H         -0.44187       -2.64290       -0.41502
H          0.25626       -1.52096       -1.40992
H          0.48232       -3.14842       -1.75070
H         -0.78156        3.35115        1.39164
H          0.85063        3.42670        0.67411
H         -0.81838        4.31582       -0.87944
H         -0.03933        2.87286       -1.53698
H         -2.58489        3.07127       -1.64580
H         -2.02401        1.64792       -1.05601
H          0.75665        1.30021        1.53627
H         -0.84218        1.01036        1.09573
C         -0.13597        2.96273        0.60161
C         -0.74496        3.22940       -0.76823
N          0.03837        1.50570        0.83023
N         -2.07624        2.65115       -0.87725
H          0.42045        1.03724       -0.01471
