42
2msa2eda_250.log	Energy: -1072754.9841431
S         -2.84656        0.22007        0.07885
O         -3.74897        1.34980        0.17510
O         -2.11600       -0.18900        1.28496
O         -1.81311        0.55117       -1.06541
C         -3.69458       -1.21618       -0.53526
H         -4.40720       -1.52425        0.23016
H         -4.20610       -0.94068       -1.45728
H         -2.94693       -1.99162       -0.71174
S          0.85878       -1.77163       -0.96111
O          0.74735       -2.55297        0.28069
O          1.63745       -0.51512       -0.78681
O         -0.47199       -1.49935       -1.60418
H         -1.21214       -0.26355       -1.28606
C          1.73994       -2.75878       -2.15310
H          2.72987       -2.96471       -1.74546
H          1.18508       -3.68499       -2.30283
H          1.81083       -2.19463       -3.08301
H          2.07867        1.32381        2.77934
H          0.43351        1.40814        3.46468
H          1.70182       -0.44269        4.46107
H          0.32700       -1.06578        3.54465
H          2.73287       -2.03889        3.22970
H          1.81710       -1.83302        1.88903
H          0.36288        1.68215        1.05938
H          1.16035        0.22525        0.82643
C          1.11666        0.81169        2.85404
C          1.31045       -0.57857        3.44798
N          0.54536        0.73178        1.49118
N          2.26766       -1.34240        2.66142
H         -0.36862        0.24816        1.49488
H          2.46260        2.22209        0.08107
H          2.63684        3.72839       -0.82441
H          0.60697        3.28405       -2.10268
H          0.54075        1.62607       -1.49691
H          0.16045        3.99140        0.20381
H         -0.98774        2.93347       -0.27834
H          4.03309        2.17762       -1.87491
H          2.85667        1.03673       -1.94141
C          2.29891        2.68768       -0.90679
C          0.80792        2.65163       -1.22979
N          3.03511        2.03757       -1.98101
N          0.00077        3.02181       -0.05451
