35
2msa1ma1dma_293.log	Energy: -978614.0181173
S          1.60122       -0.41280       -0.56611
O          0.65249       -0.20291       -1.65012
O          1.84451        0.70152        0.35859
O          2.98439       -0.84952       -1.18036
H          3.77688       -0.36570       -0.67872
C          1.10431       -1.83765        0.36476
H          0.13493       -1.59392        0.81453
H          1.02325       -2.67598       -0.32788
H          1.86224       -2.03275        1.12402
S         -2.85591       -0.81037        0.34568
O         -3.93159       -1.49760        1.05424
O         -1.61767       -0.56091        1.12577
O         -3.30808        0.48290       -0.30487
H         -2.41055        1.58738       -0.05263
C         -2.37775       -1.84425       -1.03432
H         -2.07938       -2.81548       -0.63586
H         -3.24119       -1.95810       -1.69028
H         -1.54642       -1.36642       -1.55598
N          4.82296        0.38495        0.14396
H          5.72117        0.50599       -0.31378
C          4.97804       -0.24602        1.46287
H          5.63073        0.32061        2.13498
H          3.99092       -0.32964        1.92224
H          5.38863       -1.24966        1.33357
H          4.39717        1.30309        0.24432
N         -1.78872        2.49835        0.03098
C         -1.04529        2.64944       -1.24018
C         -0.92390        2.43578        1.23255
H         -2.45357        3.26354        0.13254
H         -0.42861        1.76091       -1.38478
H         -1.76520        2.72547       -2.05578
H         -0.41668        3.54206       -1.20341
H         -0.17842        1.65564        1.08411
H         -0.43455        3.40204        1.37850
H         -1.54084        2.17696        2.09257
