32
2msa2ma_185.log	Energy: -953957.7314355
S         -1.18669       -1.15671       -0.01633
O         -1.47231       -0.39785       -1.23366
O         -0.96364       -0.32376        1.18298
O         -0.00271       -2.14269       -0.21347
H          0.95263       -1.74336       -0.01243
C         -2.51269       -2.28369        0.30618
H         -3.42553       -1.68072        0.35023
H         -2.55602       -2.99217       -0.52129
H         -2.30586       -2.79151        1.24764
S          2.77482        0.06189        0.03791
O          2.29118       -1.33510        0.28373
O          2.67952        0.93400        1.22230
O          2.11007        0.66572       -1.15429
H          0.85427        1.58400       -0.48052
C          4.49697       -0.13021       -0.36717
H          4.57032       -0.75394       -1.25785
H          4.91419        0.86014       -0.54951
H          4.98830       -0.60612        0.48154
N         -4.41106        0.33155       -0.44682
H         -3.68462        0.27105       -1.15511
C         -4.11340        1.39621        0.50667
H         -4.03035        2.40080        0.06224
H         -4.89438        1.43000        1.27121
H         -3.17121        1.16624        1.01375
H         -5.29345        0.49870       -0.91665
N          0.22211        2.01328        0.24340
H         -0.21147        1.20519        0.73572
C         -0.80648        2.89749       -0.33757
H         -1.42623        3.31318        0.45705
H         -0.32501        3.70041       -0.89544
H         -1.42111        2.29411       -1.00570
H          0.85490        2.46585        0.90454
