43
2msa1eda1tma_122.log	Energy: -1062679.2271494
S         -2.57024        1.11789       -0.31803
O         -3.10551        0.51994        0.89325
O         -2.44725        0.08285       -1.48263
O         -1.29963        1.85179       -0.17541
C         -3.77518        2.21999       -1.01486
H         -3.36793        2.64783       -1.93008
H         -4.68164        1.64884       -1.21467
H         -3.96505        2.99365       -0.27043
S          0.15969       -2.25839       -0.65750
O         -0.98572       -2.90997       -0.02886
O          1.27834       -1.93289        0.27585
O         -0.20739       -1.01981       -1.44059
H         -1.54617       -0.44009       -1.44824
C          0.84757       -3.37831       -1.86242
H          0.06708       -3.61707       -2.58509
H          1.69251       -2.89206       -2.35006
H          1.16980       -4.27655       -1.33521
H          1.62862        0.78728        3.12494
H          0.26776        1.87766        2.73834
H         -0.58581        0.15608        4.16848
H         -1.21411       -0.17471        2.55190
H         -0.21901       -2.10223        3.82857
H          0.47553       -1.91473        2.37028
H          1.70685        1.20256        0.75259
H          1.08402       -0.33334        0.92266
C          0.66734        0.86843        2.61257
C         -0.29873       -0.17258        3.16458
N          0.89721        0.66415        1.16043
N          0.35522       -1.47279        3.27971
H          0.06364        0.95857        0.62411
N          2.91747        1.65342       -0.49312
C          3.61772        2.92457       -0.36367
H          2.89150        3.74102       -0.32139
H          4.20371        2.93301        0.55992
H          4.30048        3.10996       -1.21062
C          3.84689        0.52578       -0.50322
H          4.45361        0.54041        0.40700
H          3.28504       -0.41291       -0.52712
H          4.52345        0.55855       -1.37389
C          2.06067        1.63289       -1.68002
H          1.51010        0.68808       -1.72634
H          1.32959        2.44397       -1.61972
H          2.64562        1.75073       -2.60742
