34
2msa1a1eda_295.log	Energy: -988692.8765452
S          0.90727       -1.88343       -0.11315
O          1.52884       -3.12283        0.29855
O          0.85321       -0.77349        0.85167
O         -0.54707       -2.20324       -0.61309
H         -1.11106       -1.34769       -0.71886
C          1.72183       -1.27434       -1.57472
H          2.72028       -0.95063       -1.26639
H          1.76103       -2.08279       -2.30457
H          1.14512       -0.43257       -1.96242
S         -2.90754        0.33496        0.16362
O         -1.83874       -0.04771       -0.85505
O         -4.25562       -0.01358       -0.25835
O         -2.70553        1.76893        0.53503
H         -1.57919        2.48392       -0.41728
C         -2.50928       -0.61317        1.62107
H         -2.66484       -1.66887        1.39541
H         -1.46714       -0.42866        1.88437
H         -3.18509       -0.29053        2.41339
N         -0.80076        2.51146       -1.13491
H         -0.95556        1.62140       -1.62379
H          0.13935        2.46599       -0.62342
H         -0.87789        3.30524       -1.76263
H          4.00919        2.08565        1.55203
H          4.93095        1.87077        0.05960
H          3.03578        3.30043       -0.39559
H          2.83249        1.76541       -1.24723
H          1.30567        1.08847        0.51792
H          1.47084        2.54432        1.23821
H          4.71786       -0.25835        0.97358
H          3.10144       -0.14407        1.17737
C          3.98739        1.61533        0.55378
C          2.84732        2.23052       -0.25538
N          3.87681        0.16050        0.59368
N          1.51120        2.07568        0.33612
