37
2msa1ma1eda_258.log	Energy: -1013360.7225726
S          2.30404       -0.74995        0.36056
O          1.54058       -1.99293        0.16095
O          1.90870        0.06404        1.52417
O          2.32606        0.08341       -0.90417
H          1.37268        1.40794       -0.83570
C          4.00780       -1.22357        0.61205
H          4.05256       -1.83157        1.51614
H          4.33680       -1.79788       -0.25404
H          4.60392       -0.31835        0.72795
S         -2.33499       -0.98150        0.29814
O         -3.75467       -1.03717        0.59156
O         -1.60763        0.25480        0.61694
O         -2.13961       -1.28999       -1.23174
H         -1.27256       -0.86537       -1.65376
C         -1.51265       -2.32799        1.11168
H         -1.64667       -2.17823        2.18386
H         -1.99382       -3.25228        0.79134
H         -0.45295       -2.30437        0.84241
N          0.07646        2.32667        1.75228
H         -0.02438        1.31164        1.79357
C         -1.14800        2.98908        2.21249
H         -1.37271        2.78948        3.26652
H         -1.05758        4.07070        2.07608
H         -1.98491        2.62507        1.61367
H          0.86746        2.54514        2.35094
H          0.63278        1.45709       -3.45425
H         -1.11290        1.18341       -3.52576
H         -0.82962        3.00343       -2.03644
H         -1.23021        1.60006       -1.02503
H          1.29741        3.03012       -1.20278
H          0.47005        2.41964        0.20366
H         -0.02318       -0.88514       -3.29279
H          0.78390       -0.42809       -1.94641
C         -0.23564        1.10931       -2.87625
C         -0.47545        2.03112       -1.68565
N         -0.09113       -0.29570       -2.46730
N          0.73972        2.25411       -0.85440
