35
2msa1ma1dma_239.log	Energy: -978617.0472185
S          0.22009       -1.96077       -0.07211
O          1.36866       -2.72486       -0.57419
O         -0.55700       -1.21658       -1.07603
O          0.67789       -1.03196        1.05121
H          0.20970        0.44790        1.06081
C         -0.90657       -3.09456        0.71544
H         -1.25146       -3.79653       -0.04430
H         -0.37701       -3.61681        1.51217
H         -1.74307       -2.52013        1.11582
S          0.50038        2.34678       -0.01118
O          0.35778        3.71978        0.41573
O         -0.02014        1.43204        1.16627
O          1.84914        1.88334       -0.40151
H          2.83023        0.64223        0.17163
C         -0.59339        1.99462       -1.36014
H         -1.62004        2.14093       -1.01722
H         -0.33156        2.68182       -2.16551
H         -0.44409        0.95236       -1.64847
N          3.22744       -0.26156        0.51614
H          3.82068       -0.07233        1.32089
C          3.95134       -0.98334       -0.56011
H          4.36135       -1.90872       -0.15848
H          3.23266       -1.23125       -1.33885
H          4.74469       -0.34431       -0.94696
H          2.37379       -0.78269        0.83109
N         -3.18517        0.21458       -0.23956
C         -4.31325       -0.45655       -0.85925
C         -3.28612        0.26225        1.20775
H         -2.32492       -0.25388       -0.51336
H         -5.22752        0.12506       -0.69505
H         -4.15096       -0.53389       -1.93754
H         -4.49092       -1.47389       -0.46303
H         -4.14257        0.88166        1.49749
H         -3.42922       -0.73170        1.67501
H         -2.38590        0.71825        1.62660
