41
2msa1dma1tma_07.log	Energy: -1027957.9530299
S          3.07978        0.05985       -0.25487
O          2.96298        1.51173       -0.49129
O          2.67858       -0.79638       -1.38766
O          2.36798       -0.35463        1.00812
C          4.81046       -0.25891        0.05633
H          5.12019        0.33264        0.91808
H          4.93712       -1.32384        0.25229
H          5.36910        0.03560       -0.83265
S         -2.87847       -0.52886       -0.14744
O         -3.43829        0.45797        0.78886
O         -2.84346       -1.92479        0.30980
O         -1.49667       -0.09625       -0.62035
C         -3.88865       -0.49135       -1.62019
H         -4.89742       -0.79356       -1.33705
H         -3.89251        0.52368       -2.01838
H         -3.46845       -1.18886       -2.34482
N          0.32074       -1.99480        0.39505
C          0.53305       -3.02115       -0.64551
C         -0.14294       -2.52915        1.69205
H          1.19945       -1.43952        0.55867
H         -0.42265       -3.49995       -0.86454
H          0.94346       -2.52700       -1.52549
H          1.25022       -3.75752       -0.27884
H         -1.11718       -2.99779        1.55823
H          0.59610       -3.24148        2.06288
H         -0.23353       -1.70090        2.39553
H         -0.37132       -1.30874        0.03306
N         -0.67633        2.33194        0.19826
C          0.21800        2.95274       -0.81410
H          1.13215        2.36049       -0.90480
H         -0.31553        2.99549       -1.76458
H          0.47020        3.96303       -0.48269
C         -1.89351        3.14687        0.43431
H         -2.37600        3.33952       -0.52482
H         -2.57508        2.57837        1.06674
H         -1.60215        4.09084        0.90047
C          0.03930        2.03722        1.46781
H         -0.66758        1.56445        2.15154
H          0.87895        1.36841        1.26409
H          0.40722        2.97378        1.89282
H         -0.99971        1.39843       -0.17607
