38
2msa2dma_23.log	Energy: -1003289.7944212
S          0.72694        2.12732       -0.26508
O          0.13278        1.49573        0.98775
O         -0.11644        1.86802       -1.44195
O          2.14234        1.74980       -0.39520
C          0.66412        3.88221        0.04958
H         -0.37892        4.16804        0.18669
H          1.24569        4.09324        0.94690
H          1.09141        4.38823       -0.81650
S         -2.52645       -0.60956        0.16364
O         -3.74353       -1.24713        0.62130
O         -1.28927       -1.40002        0.13089
O         -2.28864        0.66255        1.06669
H         -1.33522        1.01158        0.99381
C         -2.77949        0.07623       -1.45579
H         -2.93233       -0.75884       -2.14087
H         -3.66892        0.70524       -1.41476
H         -1.89260        0.65862       -1.71783
N          1.56282       -0.87764        1.33784
C          2.98555       -0.56197        1.57066
C          0.96161       -1.76640        2.35075
H          1.01731        0.00743        1.27856
H          3.56841       -1.48432        1.51896
H          3.30294        0.14379        0.80301
H          3.10451       -0.10768        2.55644
H          1.51214       -2.70956        2.37217
H          1.01382       -1.29124        3.33225
H         -0.07695       -1.94666        2.07350
H          1.46456       -1.33769        0.36773
N          1.25525       -2.09399       -1.11788
C          1.87802       -3.40687       -1.24386
C          1.59804       -1.18693       -2.21521
H          0.24253       -2.18632       -1.06560
H          2.96537       -3.30272       -1.16441
H          1.53402       -4.05982       -0.43684
H          1.65533       -3.89421       -2.20468
H          2.66183       -0.93648       -2.16246
H          1.39396       -1.63390       -3.19953
H          1.03177       -0.25888       -2.11584
