37
2msa1ma1eda_475.log	Energy: -1013353.0425532
S         -0.52441       -1.52212        0.58379
O         -0.08343       -0.57893        1.62511
O         -0.30596       -0.99925       -0.80467
O         -1.95450       -1.94629        0.72044
H         -2.74118       -1.33106       -0.51976
C          0.45675       -2.99576        0.74268
H          0.11810       -3.71036       -0.00747
H          1.49748       -2.71644        0.56795
H          0.30982       -3.38988        1.74856
S          3.06124        0.11658       -0.53662
O          4.15247        0.77476       -1.22489
O          3.05588       -1.33350       -0.38552
O          1.71729        0.56427       -1.26702
H          0.96977       -0.09258       -1.09930
C          2.88092        0.84012        1.08153
H          3.77773        0.58142        1.64623
H          2.80361        1.92144        0.96469
H          1.98660        0.42066        1.54736
N         -0.28690        2.28945        0.47607
H         -0.26280        1.42349        1.01406
C          0.01450        3.43646        1.32813
H          0.98623        3.37458        1.84041
H          0.00579        4.35333        0.73162
H         -0.75921        3.53391        2.09510
H          0.41958        2.17863       -0.24655
H         -5.11181        0.30599       -1.26662
H         -4.84097       -0.65813        0.21182
H         -4.43524        1.84467        0.56176
H         -3.01713        0.84703        0.90519
H         -3.33436        2.63422       -1.34777
H         -1.96187        2.16673       -0.51134
H         -3.65053       -1.39378       -1.96035
H         -2.67583       -0.05509       -1.63618
C         -4.36932       -0.01131       -0.52990
C         -3.67480        1.20118        0.10378
N         -3.30642       -0.77502       -1.23144
N         -2.86033        1.85374       -0.91021
