40
2msa1dma1eda_90.log	Energy: -1038030.1199352
S          0.29631        2.39732       -0.56771
O         -0.01617        3.79688       -0.29522
O         -0.08614        1.46136        0.55414
O          1.70366        2.11039       -0.96846
H          1.95041        0.47973       -0.57679
C         -0.70599        1.87574       -1.95779
H         -0.39265        2.45070       -2.82992
H         -0.56076        0.80511       -2.11939
H         -1.75329        2.08458       -1.73343
S         -1.14767       -2.08987       -0.54267
O         -0.52155       -1.97298        0.79714
O         -0.21698       -1.68620       -1.63302
O         -2.46659       -1.39998       -0.61899
H         -2.61395       -0.15396        0.52243
C         -1.49971       -3.81730       -0.81493
H         -2.18620       -4.15294       -0.03747
H         -1.95447       -3.91962       -1.80028
H         -0.56042       -4.36830       -0.76461
N         -2.48239        0.60322        1.23371
C         -2.39885       -0.01057        2.57419
C         -3.51697        1.64362        1.09631
H         -1.53727        1.01460        0.98509
H         -3.36501       -0.44734        2.83484
H         -1.63748       -0.79013        2.53177
H         -2.12545        0.75419        3.30309
H         -4.50096        1.21170        1.28735
H         -3.31629        2.44778        1.80593
H         -3.48375        2.04460        0.08306
H          2.94640       -2.15149        0.47585
H          3.65168       -1.29519       -0.90610
H          4.05659        0.70199        0.60311
H          3.45682       -0.24883        1.96346
H          5.87767       -0.85025        0.42900
H          5.72554       -0.60830        2.03730
H          1.24592       -1.02396       -0.90222
H          1.24832       -0.43264        0.60383
C          3.13614       -1.16497        0.04931
C          3.97624       -0.32065        1.00192
N          1.84485       -0.50512       -0.22696
N          5.25687       -0.98129        1.22058
