40
2msa1dma1eda_370.log	Energy: -1038015.4922314
S         -1.60535       -1.82983       -0.55232
O         -1.24173       -1.36202        0.80122
O         -1.66508       -3.26004       -0.77467
O         -0.60153       -1.20115       -1.58507
H         -0.00879       -0.45061       -1.19681
C         -3.15626       -1.08710       -0.97411
H         -3.90202       -1.51418       -0.30172
H         -3.09086        0.00345       -0.84990
H         -3.37588       -1.35691       -2.00769
S          2.40056        0.59548       -0.86315
O          2.98138        1.90072       -0.56561
O          0.89649        0.60319       -0.68758
O          2.97907       -0.54770       -0.09690
H          1.96352       -0.90246        1.14437
C          2.68377        0.22725       -2.58376
H          2.24702        1.03287       -3.17430
H          3.76140        0.17569       -2.74044
H          2.21301       -0.72829       -2.81757
N          1.24650       -0.98200        1.91371
C          1.25104        0.28924        2.66939
C          1.50109       -2.18615        2.72819
H          0.32929       -1.08499        1.43517
H          2.22457        0.42036        3.14369
H          1.07350        1.10233        1.96470
H          0.46117        0.26634        3.42176
H          2.48577       -2.10559        3.19086
H          0.73194       -2.27390        3.49700
H          1.46838       -3.06045        2.07805
H         -3.18012        3.50067        1.18164
H         -3.57075        1.80356        1.51969
H         -1.26555        2.31210        2.19298
H         -1.29252        1.12383        0.88356
H         -0.34685        3.85764        0.69973
H          0.14722        2.49554       -0.10178
H         -4.18902        2.56353       -0.76747
H         -2.58302        2.69395       -1.07862
C         -2.96542        2.46098        0.88369
C         -1.48369        2.17539        1.12199
N         -3.27593        2.19718       -0.52042
N         -0.65584        3.00388        0.25346
