34
2msa1a1eda_324.log	Energy: -988690.9150635
S         -0.76563        1.53549        0.31649
O         -0.08579        2.80351        0.72768
O         -0.81778        0.51148        1.36819
O         -0.12385        1.02686       -0.95151
H          0.70485       -0.26828       -0.96242
C         -2.43045        1.98571       -0.11020
H         -2.89079        2.39776        0.78881
H         -2.38297        2.74242       -0.89348
H         -2.98006        1.10333       -0.45421
S          2.53560       -1.05174       -0.05323
O          3.44666       -2.10054       -0.44871
O          1.30387       -1.09196       -1.03480
O          3.05376        0.32854        0.00718
H          2.53546        1.84025       -0.48621
C          1.83496       -1.41691        1.53761
H          1.41160       -2.42114        1.49573
H          2.64946       -1.37438        2.26166
H          1.06476       -0.67313        1.75838
N          2.11802        2.76641       -0.73472
H          1.74812        2.69979       -1.68098
H          2.80763        3.50915       -0.66504
H          1.28438        2.91525       -0.08369
H         -1.98922       -0.96691       -1.14233
H         -2.62919       -2.60085       -1.35217
H         -4.00710       -2.38311        0.65477
H         -3.23556       -0.84590        1.06317
H         -4.80880       -1.21893       -1.39192
H         -5.32680       -0.44732       -0.05396
H         -0.53703       -2.74900       -0.28562
H         -0.98621       -1.71148        0.88751
C         -2.34174       -1.85761       -0.59775
C         -3.56543       -1.47251        0.22567
N         -1.32855       -2.44583        0.27223
N         -4.49674       -0.68383       -0.58698
