26
2msa2a_75.log	Energy: -904631.6289490
S         -2.58188       -0.44203        0.12224
O         -3.45540        0.69147        0.37600
O         -1.68354       -0.90521        1.17005
O         -1.74397       -0.12464       -1.19116
H         -0.76126       -0.25405       -1.05113
C         -3.58073       -1.80687       -0.42815
H         -4.23881       -2.07781        0.39810
H         -4.16083       -1.48140       -1.29141
H         -2.91991       -2.63408       -0.68598
S          1.83323        0.14741       -0.04290
O          0.84231       -0.39881       -0.98011
O          2.83169        1.05676       -0.59848
O          2.57257       -1.06311        0.64706
H          3.57254       -1.07194        0.37454
C          0.98127        0.90563        1.30490
H          0.37545        1.72012        0.88221
H          0.32948        0.15439        1.75361
H          1.72828        1.27274        2.00858
N         -1.19959        2.88099       -0.18828
H         -1.14929        2.64879       -1.17522
H         -1.21078        3.89211       -0.10977
H         -2.09238        2.52683        0.14796
N          5.06543       -0.90665       -0.14125
H          5.78747       -0.85865        0.57006
H          4.99649        0.00231       -0.59566
H          5.34842       -1.59024       -0.83604
