40
2msa1dma1eda_294.log	Energy: -1038017.4315306
S         -1.30417        2.20266        0.15755
O         -2.38218        1.23024       -0.10801
O         -0.83403        2.99597       -0.97325
O         -0.16347        1.46955        0.86750
C         -1.92073        3.33531        1.39323
H         -2.76891        3.86474        0.95791
H         -2.23023        2.76481        2.26894
H         -1.12336        4.03437        1.64627
S          2.73780        0.24089       -0.31029
O          1.79388       -0.23259       -1.32273
O          3.07952       -0.71736        0.74382
O          2.25800        1.59337        0.30594
H          1.22824        1.60622        0.49938
C          4.23065        0.77924       -1.10500
H          4.67983       -0.09999       -1.56749
H          3.96707        1.52385       -1.85520
H          4.89191        1.19795       -0.34678
N         -2.93815       -2.12396       -0.77277
C         -2.99789       -1.40323       -2.04981
C         -3.96258       -1.66497        0.16901
H         -3.05740       -3.11792       -0.94345
H         -2.80076       -0.34427       -1.86107
H         -2.22882       -1.78940       -2.72423
H         -3.97825       -1.49769       -2.53888
H         -3.77763       -0.61117        0.39377
H         -4.98070       -1.76396       -0.23562
H         -3.89580       -2.24268        1.09558
H          0.80274       -1.28933        1.88186
H         -0.85411       -1.84068        2.19691
H          0.80422       -3.71450        2.21518
H         -0.43093       -3.93937        0.96781
H          2.22463       -2.80305        0.39613
H          1.67678       -4.29188       -0.06616
H         -0.55581       -0.24438        0.35608
H          0.27667       -1.39860       -0.49157
C         -0.02330       -1.88788        1.48974
C          0.42952       -3.32373        1.25669
N         -0.45512       -1.26488        0.21926
N          1.39570       -3.34850        0.16884
H         -1.37252       -1.66052       -0.13811
