37
2msa1ma1eda_207.log	Energy: -1013361.0717063
S         -0.20471        2.08239       -0.43959
O          0.87982        2.20289        0.55008
O         -1.56971        2.18936        0.10734
O         -0.06192        0.82395       -1.26782
C         -0.00837        3.41859       -1.60601
H         -0.10621        4.35761       -1.06069
H          0.98071        3.33625       -2.05716
H         -0.78743        3.32879       -2.36302
S          2.49413       -1.22585       -0.07444
O          3.44645       -2.26885       -0.39117
O          1.29300       -1.59733        0.69320
O          2.05523       -0.55044       -1.42521
H          1.22261        0.04461       -1.33005
C          3.30246        0.08499        0.81036
H          3.60661       -0.32025        1.77620
H          4.17266        0.39113        0.22947
H          2.58819        0.90498        0.92348
N         -2.10986        0.42366        2.36795
H         -2.21507        1.28353        1.82675
C         -0.85704        0.48593        3.13517
H         -0.86623        1.25517        3.91600
H         -0.65923       -0.48462        3.59879
H         -0.03885        0.71627        2.44829
H         -2.90932        0.33115        2.98543
H         -1.55093       -3.09372       -0.61654
H         -2.25484       -2.92143        0.99919
H         -4.05599       -3.10734       -0.69378
H         -4.08378       -1.51057        0.06166
H         -3.07439       -2.08398       -2.62593
H         -4.12282       -0.91580       -2.14175
H         -0.40578       -1.33090        0.38466
H         -1.46251       -0.59303       -0.64821
C         -2.14782       -2.43906        0.02469
C         -3.50746       -2.15874       -0.60691
N         -1.41278       -1.17342        0.20183
N         -3.31271       -1.45563       -1.86728
H         -1.79422       -0.60177        1.01888
