43
2msa1eda1tma_164.log	Energy: -1062677.3496599
S         -1.37760       -0.86960        0.83717
O         -1.46528        0.50246        1.39472
O         -0.92312       -0.88855       -0.57466
O         -2.68705       -1.60734        0.96920
H         -3.38792       -1.39577       -0.41586
C         -0.20096       -1.76923        1.81618
H          0.77780       -1.30032        1.67448
H         -0.52418       -1.72294        2.85639
H         -0.18960       -2.80032        1.46145
S          3.21877       -0.90785       -0.41945
O          4.54218       -1.43011       -0.08307
O          3.16553        0.05409       -1.54538
O          2.49890       -0.32055        0.78468
H          1.98633        1.06478        0.42813
C          2.20007       -2.29876       -0.89599
H          2.22662       -3.03177       -0.08822
H          1.18288       -1.93931       -1.06517
H          2.62597       -2.72620       -1.80456
H         -5.34525        0.24309       -2.00562
H         -5.72905       -0.78676       -0.59938
H         -5.40230        1.66934        0.00645
H         -4.30935        0.57202        0.86008
H         -3.55683        2.60855       -0.96673
H         -2.60661        1.64497       -0.00105
H         -3.89872       -1.67830       -2.03817
H         -3.00433       -0.32532       -1.62093
C         -4.97113       -0.14602       -1.05492
C         -4.54969        0.99425       -0.12041
N         -3.76259       -0.96280       -1.32906
N         -3.37379        1.65973       -0.67052
N          1.67873        2.07938        0.21066
C          1.00674        2.59395        1.42419
H          0.12772        1.97766        1.62312
H          1.70478        2.52973        2.26036
H          0.71718        3.63638        1.26262
C          2.91734        2.82629       -0.10534
H          3.58095        2.78448        0.75961
H          3.39926        2.33443       -0.95087
H          2.66643        3.86527       -0.33695
C          0.76338        2.01920       -0.95397
H          1.31354        1.57769       -1.78501
H         -0.07914        1.37385       -0.70334
H          0.42484        3.03157       -1.19447
