32
2msa2ma_249.log	Energy: -953945.5089755
S          1.44326        0.30888       -0.12267
O          0.35373        0.18130       -1.10685
O          2.49299        1.27068       -0.45746
O          2.08889       -1.09693        0.10388
H          3.13710       -1.08261       -0.20783
C          0.72450        0.70329        1.44290
H          0.17290        1.63966        1.28722
H          0.03449       -0.09980        1.71046
H          1.53046        0.80600        2.16956
S         -2.62216       -1.07264        0.11508
O         -3.22991        0.24135       -0.04963
O         -1.88094       -1.33422        1.34225
O         -1.71938       -1.42149       -1.14491
H         -0.89729       -0.84798       -1.14791
C         -3.86431       -2.32265       -0.10615
H         -4.58769       -2.18911        0.69882
H         -4.33573       -2.17370       -1.07701
H         -3.38676       -3.29952       -0.04017
N         -1.26607        2.75921       -0.06760
H         -0.78647        2.63365       -0.95350
C         -1.84466        4.09534        0.02822
H         -2.57786        4.33537       -0.75668
H         -2.34311        4.20373        0.99594
H         -1.04773        4.84397       -0.01337
H         -1.99438        2.04933       -0.03668
N          4.51705       -0.91078       -0.57364
H          4.85963       -1.60388       -1.23215
C          5.36653       -0.83970        0.62450
H          6.40888       -0.60094        0.39267
H          4.96651       -0.06954        1.28658
H          5.32692       -1.79702        1.14739
H          4.49025       -0.00964       -1.04841
