40
2msa1dma1eda_42.log	Energy: -1038037.8089970
S          2.48322        0.87817        0.08767
O          2.93121       -0.22881        0.95391
O          2.33580        2.19087        0.73636
O          1.21627        0.50760       -0.65635
H         -0.04691        1.55741       -0.22310
C          3.71575        1.05295       -1.19275
H          4.66295        1.30456       -0.71474
H          3.78903        0.10368       -1.72482
H          3.40299        1.84751       -1.87029
S         -2.98435       -0.43539       -0.23289
O         -3.06309        0.95272       -0.76362
O         -2.17011       -0.48544        1.02656
O         -2.53124       -1.44098       -1.21244
H         -0.46144       -2.34311       -0.66954
C         -4.65136       -0.86501        0.23367
H         -5.00114       -0.13867        0.96724
H         -5.26846       -0.83405       -0.66461
H         -4.63942       -1.86884        0.65842
N         -0.77378        2.27401        0.00800
C         -0.42620        3.50953       -0.72102
C         -0.82463        2.43692        1.47863
H         -1.68076        1.87834       -0.32822
H          0.56111        3.83657       -0.39080
H         -0.40829        3.29253       -1.78933
H         -1.17432        4.27635       -0.51320
H          0.17641        2.68858        1.83143
H         -1.53732        3.22647        1.72425
H         -1.16124        1.49111        1.90375
H          1.22423       -4.30059       -0.46900
H          2.36895       -4.20000        0.87390
H          0.15179       -3.35938        1.54105
H          1.38670       -2.07824        1.63170
H         -0.72747       -1.35964        0.60762
H          0.61445       -1.10556       -0.34847
H          3.11933       -2.06994       -0.17536
H          3.25553       -3.31390       -1.26168
C          1.79468       -3.59823        0.15183
C          0.83363       -2.73673        0.95762
N          2.60404       -2.76057       -0.71901
N          0.02822       -1.85345        0.08302
