41
2msa1dma1tma_137.log	Energy: -1027938.9169717
S         -2.62245       -0.40913       -0.68381
O         -2.86515       -1.43156        0.33286
O         -3.31156       -0.50638       -1.95547
O         -1.04883       -0.40999       -0.90282
C         -2.93250        1.19495        0.02540
H         -3.98761        1.21524        0.30077
H         -2.27884        1.32251        0.88973
H         -2.71485        1.94954       -0.73105
S          0.81265        2.02308        0.22618
O          2.22429        1.62607        0.17646
O          0.05623        1.39815        1.34613
O          0.08720        1.80739       -1.07804
H         -0.62998        0.52171       -1.09447
C          0.75429        3.78624        0.48204
H          1.26486        4.00563        1.41997
H          1.26290        4.26511       -0.35478
H         -0.28994        4.09582        0.52798
N          2.71188       -1.81060       -1.31252
C          3.98244       -1.13789       -1.05164
C          1.89970       -1.07416       -2.27976
H          2.90076       -2.73847       -1.67939
H          3.77989       -0.16701       -0.58848
H          4.58495       -1.73728       -0.36168
H          4.57370       -0.96071       -1.96530
H          1.69769       -0.07511       -1.88579
H          2.39540       -0.95586       -3.25737
H          0.94178       -1.57939       -2.42889
N          0.28723       -1.44570        1.53961
C         -0.62143       -1.30847        2.70641
H         -0.49321       -0.30696        3.11621
H         -1.64497       -1.44842        2.35715
H         -0.35572       -2.06705        3.44554
C          0.11708       -2.74901        0.84469
H         -0.92173       -2.83753        0.52794
H          0.79336       -2.75423       -0.01171
H          0.38061       -3.54590        1.54376
C          1.70924       -1.20355        1.90413
H          2.30325       -1.30607        0.99522
H          1.79611       -0.19264        2.29869
H          2.00250       -1.94849        2.64736
H          0.01169       -0.70160        0.88028
