42
2msa2eda_396.log	Energy: -1072751.0279218
S          2.43233        0.51176       -0.63610
O          2.91732       -0.65709        0.09842
O          1.88985        1.60759        0.17431
O          1.43221        0.09031       -1.74668
H          0.39437        0.10694       -1.46503
C          3.76546        1.14646       -1.62423
H          4.55973        1.44147       -0.93810
H          4.10387        0.35451       -2.29186
H          3.39685        2.00368       -2.18669
S         -1.95891       -0.84979       -1.13075
O         -1.58372       -1.99052       -1.96466
O         -0.92443        0.26247       -1.13318
O         -2.35017       -1.16494        0.26528
H         -0.86391       -1.33646        1.34992
C         -3.38715       -0.07884       -1.87327
H         -3.13321        0.19174       -2.89826
H         -4.20029       -0.80504       -1.85822
H         -3.64937        0.80619       -1.29251
H          1.60217       -1.12422        2.07936
H          1.05714       -2.11128        3.45775
H          1.89815       -3.53203        1.57064
H          0.17127       -3.81258        1.81595
H          1.36039       -2.26930       -0.36021
H          0.03949       -3.27719       -0.40976
H         -1.15292       -1.61023        2.94977
H         -0.41306       -0.14067        2.45602
C          0.86133       -1.85425        2.41381
C          0.90577       -3.06882        1.48499
N         -0.47184       -1.20694        2.31051
N          0.56053       -2.61908        0.15316
H         -1.27258        4.09900        1.64440
H         -2.70549        3.52798        0.80260
H         -2.26544        2.07848        2.71917
H         -2.08288        1.17297        1.21473
H          0.33944        1.55455        1.44671
H          0.07718        2.13584        2.94734
H          0.08988        3.24088       -0.05992
H         -1.12405        2.42463       -0.75764
C         -1.65801        3.28215        1.02048
C         -1.64407        1.97299        1.82152
N         -0.91080        3.26671       -0.22740
N         -0.30785        1.51756        2.23882
