37
2msa1ma1eda_335.log	Energy: -1013358.3352128
S          1.71797       -1.46321        0.20937
O          3.11362       -1.33681        0.60851
O          1.25544       -0.58730       -0.87189
O          0.85217       -1.22373        1.49296
C          1.34465       -3.13323       -0.25638
H          1.94643       -3.36694       -1.13532
H          1.59931       -3.78680        0.57776
H          0.27797       -3.16319       -0.49746
S         -2.19583       -0.95280       -0.26765
O         -1.70575       -2.12200       -1.00558
O         -2.09475        0.34446       -0.97289
O         -1.57698       -0.85137        1.11204
H         -0.17024       -1.11087        1.29201
C         -3.92978       -1.22212        0.06098
H         -4.03223       -2.15907        0.60827
H         -4.30975       -0.38663        0.64911
H         -4.44099       -1.28206       -0.90035
N          3.13633        1.87123        0.14391
H          3.66072        2.55190        0.68467
C          3.69356        1.75478       -1.21223
H          4.75439        1.47949       -1.22435
H          3.13258        0.98672       -1.74945
H          3.57390        2.70627       -1.73824
H          3.24383        0.97333        0.61663
H         -0.97111        1.27654        1.24056
H          0.29002        2.37752        1.82519
H         -2.13041        3.32092        1.62875
H         -0.84256        4.32101        0.94362
H         -2.43054        2.45759       -0.69313
H         -2.52211        4.11698       -0.72119
H          0.22090        0.99810       -0.58288
H         -0.07071        2.57881       -0.95948
C         -0.42025        2.19052        1.01738
C         -1.37906        3.37189        0.82899
N          0.34117        1.96291       -0.24365
N         -1.92336        3.32587       -0.52288
H          1.38262        2.08965       -0.11159
