34
2msa1a1eda_220.log	Energy: -988697.0153341
S          1.51126       -1.51734       -0.20790
O          0.11729       -2.05582       -0.13135
O          1.91892       -0.81881        1.02867
O          1.72377       -0.69326       -1.42853
H          1.24496        0.94634       -1.34634
C          2.55260       -2.95061       -0.37509
H          2.40053       -3.57923        0.50220
H          2.26430       -3.47657       -1.28503
H          3.58607       -2.60907       -0.43450
S         -2.58698        0.06798       -0.22789
O         -3.77733        0.54798       -0.89644
O         -1.58434        1.07829        0.18089
O         -1.88733       -0.96338       -1.18268
H         -1.04254       -1.38770       -0.76955
C         -3.01299       -0.87219        1.21442
H         -3.61695       -0.22185        1.84844
H         -3.59017       -1.73609        0.88470
H         -2.09246       -1.14575        1.73852
N         -0.38532        0.04071        2.90509
H          0.41399       -0.29772        2.37073
H         -0.06627        0.28410        3.83603
H         -0.72310        0.88270        2.44929
H          0.86898        2.41499        1.21718
H          1.90056        3.81993        0.96286
H          0.28388        3.75048       -0.83234
H          1.90183        3.37337       -1.49615
H         -0.26512        1.45510       -0.82540
H          0.27482        1.84585       -2.34642
H          3.55056        2.32368        1.20648
H          2.65680        1.02538        0.75069
C          1.66214        2.82520        0.57375
C          1.10641        3.03040       -0.83200
N          2.85989        2.00202        0.54141
N          0.57171        1.75226       -1.37647
