35
2msa1ma1dma_259.log	Energy: -978616.7488252
S         -2.97345        0.22052        0.40534
O         -2.71808        0.57400       -1.00678
O         -2.44819        1.15260        1.39007
O         -2.53168       -1.24562        0.67558
H         -1.62490       -1.53078        0.22241
C         -4.72730        0.05524        0.62226
H         -5.10232       -0.65163       -0.11691
H         -4.90807       -0.30232        1.63580
H         -5.16451        1.04353        0.47853
S          0.83678       -1.26753       -0.37488
O         -0.44815       -2.03851       -0.42057
O          0.89655       -0.34685        0.77557
O          1.10117       -0.56958       -1.67080
H          0.33878        0.86826       -1.68233
C          2.12549       -2.47671       -0.19891
H          1.92623       -3.04128        0.71228
H          2.10515       -3.12818       -1.07249
H          3.07008       -1.93176       -0.11855
N         -0.26880        1.73016       -1.56302
H         -0.25376        2.27089       -2.42448
C          0.16793        2.52922       -0.38920
H         -0.52290        3.35830       -0.23902
H          0.15928        1.86973        0.47829
H          1.17988        2.89464       -0.56465
H         -1.23421        1.36540       -1.41390
N          3.90699        0.31392        0.67542
C          3.91979        1.16048       -0.50315
C          4.83197        0.75777        1.70172
H          2.96073        0.26288        1.04416
H          4.89710        1.09357       -0.99506
H          3.16139        0.81045       -1.20915
H          3.73634        2.22990       -0.28023
H          5.86062        0.66430        1.33486
H          4.68033        1.80897        2.00818
H          4.73385        0.12432        2.58739
