42
2msa2eda_223.log	Energy: -1072757.6966343
S         -1.58613       -0.30184        1.50775
O         -1.51284        1.16319        1.29793
O         -0.51731       -0.86670        2.34451
O         -1.70075       -1.01128        0.17758
H         -0.65365       -2.01879       -0.31405
C         -3.13375       -0.61462        2.33445
H         -3.10357       -0.10679        3.29867
H         -3.93890       -0.21768        1.71586
H         -3.23844       -1.69124        2.46907
S          1.48135       -2.05326       -0.72338
O          2.28722       -2.82192       -1.64585
O          0.02787       -2.65590       -0.72854
O          1.38455       -0.59562       -0.93878
H          0.00824        0.57171       -1.22002
C          2.04367       -2.30181        0.94237
H          2.14896       -3.37527        1.09908
H          3.00389       -1.79363        1.04163
H          1.30010       -1.87020        1.61762
H         -1.53578        2.78144       -2.45123
H         -0.21981        1.90953       -3.28084
H         -2.41330        1.00944       -3.91998
H         -1.45030       -0.21209       -3.08625
H         -3.91774        0.23764       -2.40469
H         -2.82079        0.01538       -1.20775
H          0.44481        2.13949       -1.04239
H         -1.03966        1.57164       -0.42937
C         -1.02137        1.82258       -2.54194
C         -2.00370        0.73031       -2.94436
N         -0.38949        1.52459       -1.23576
N         -3.08713        0.62818       -1.97720
H          0.48841        2.66581        1.45373
H          1.76920        2.96963        2.63053
H          2.08297        4.28837        0.57174
H          3.44943        3.19830        0.89210
H          2.61544        3.22947       -1.43726
H          2.61952        1.74354       -0.78153
H          1.40497        0.65273        2.47463
H          1.60959        0.61777        0.88552
C          1.55959        2.51170        1.65818
C          2.38935        3.23796        0.60890
N          1.92531        1.09932        1.72469
N          2.16704        2.65568       -0.72963
