37
2msa1ma1eda_393.log	Energy: -1013355.2254830
S          1.30805        1.97761       -0.34762
O          2.24848        3.07377       -0.38447
O         -0.08533        2.53098       -0.85187
O          1.09802        1.30345        0.94963
H         -0.07142        0.50789        1.81945
C          1.74118        0.73596       -1.53473
H          1.97346        1.24597       -2.46972
H          2.60273        0.18875       -1.13515
H          0.88837        0.06229       -1.65572
S         -2.15385       -0.52207       -0.62389
O         -2.18716       -1.37229        0.60332
O         -1.15131       -0.94392       -1.61353
O         -2.02659        0.92259       -0.24124
H         -0.83506        1.88305       -0.66366
C         -3.75705       -0.69107       -1.38093
H         -3.90160       -1.74317       -1.62687
H         -4.51080       -0.35225       -0.67053
H         -3.76866       -0.07878       -2.28284
N         -0.79366        0.04520        2.41616
H         -1.31975       -0.61959        1.78660
C         -1.71682        1.06595        2.96541
H         -2.47016        0.57866        3.58418
H         -1.15126        1.78947        3.55199
H         -2.19152        1.55613        2.11594
H         -0.31687       -0.48056        3.14507
H          3.04617       -3.34654        1.13958
H          3.01145       -1.70599        1.80988
H          0.72718       -2.56123        1.45257
H          1.06157       -1.14502        0.44033
H          0.85272       -3.89515       -0.48682
H          0.17089       -2.52089       -1.08594
H          4.56399       -1.89252       -0.06710
H          3.29170       -2.25599       -1.04699
C          2.79844       -2.29512        0.91005
C          1.30907       -2.20001        0.58688
N          3.56932       -1.75501       -0.20592
N          1.00459       -2.90650       -0.65097
