37
2msa1ma1eda_242.log	Energy: -1013361.9157066
S         -1.67265       -1.68280       -0.07001
O         -1.39706       -0.88472       -1.30550
O         -1.74178       -0.83690        1.14152
O         -0.73371       -2.82722        0.05030
C         -3.29006       -2.39745       -0.29686
H         -4.00913       -1.58462       -0.40152
H         -3.26729       -3.01075       -1.19769
H         -3.51814       -3.00385        0.57985
S         -0.57241        2.40186       -0.34956
O         -0.36705        3.76445       -0.79684
O          0.59467        1.57251       -0.04194
O         -1.45432        1.67478       -1.43782
H         -1.42920        0.66308       -1.34483
C         -1.62604        2.40315        1.08471
H         -1.07399        2.88590        1.89267
H         -2.52437        2.97133        0.84269
H         -1.86187        1.36385        1.32611
N          1.05150       -0.52747        2.26638
H          0.10605       -0.30191        1.95056
C          1.74338        0.65416        2.78807
H          1.25591        1.09118        3.66899
H          2.76911        0.38949        3.06193
H          1.77667        1.40939        2.00086
H          0.93632       -1.22845        2.99272
H          2.07057       -1.55344       -2.13999
H          1.08631       -0.30080       -1.35129
H          3.33925        0.59925       -1.93056
H          3.05706        0.59245       -0.19422
H          4.76716       -1.28414       -1.65942
H          5.11610       -0.41680       -0.32267
H          0.97040       -2.39526       -0.16003
H          2.66858       -2.33007        0.06017
C          1.98123       -0.91357       -1.25695
C          3.22065       -0.05680       -1.05932
N          1.81178       -1.79051       -0.07355
N          4.37612       -0.92104       -0.79618
H          1.62867       -1.22779        0.82657
