35
2msa1ma1dma_228.log	Energy: -978616.7626994
S          1.06665       -0.19142        0.90109
O          0.92473        1.27597        0.81339
O          1.11054       -0.89446       -0.37736
O         -0.05602       -0.77489        1.82032
H         -1.00474       -0.56715        1.42131
C          2.50781       -0.56058        1.85305
H          3.36553       -0.22625        1.25184
H          2.43678       -0.02885        2.80149
H          2.53582       -1.63949        2.00725
S         -2.91377       -0.67946       -0.40649
O         -4.32564       -0.98131       -0.22845
O         -2.25161       -0.15932        0.85397
O         -2.60805        0.27017       -1.52394
H         -1.75810        1.50302       -1.04066
C         -2.05687       -2.19141       -0.80660
H         -2.22540       -2.89963        0.00563
H         -2.48329       -2.57220       -1.73510
H         -0.99372       -1.97450       -0.92546
N         -1.24024        2.32758       -0.59713
H         -0.39871        1.94416       -0.12168
C         -2.12739        2.99461        0.38551
H         -1.59337        3.81109        0.87189
H         -3.01167        3.37044       -0.12877
H         -2.42354        2.24153        1.11501
H         -0.93758        2.96259       -1.33197
N          4.64029        0.10982       -0.52610
C          4.00623        1.14963       -1.32665
C          4.54848       -1.20644       -1.14673
H          5.61392        0.34723       -0.36991
H          2.93877        0.92705       -1.41786
H          4.10883        2.11552       -0.82486
H          4.42461        1.23353       -2.34411
H          3.49444       -1.49435       -1.21183
H          4.97700       -1.24290       -2.16228
H          5.06694       -1.94273       -0.52585
