32
2msa2ma_52.log	Energy: -953969.2153232
S          2.42632       -0.33506        0.14927
O          3.84610       -0.18853       -0.09243
O          1.79030       -0.93516       -1.16415
O          1.65757        0.84037        0.56887
H         -0.76006        0.59025        1.44834
C          2.15817       -1.61710        1.35397
H          2.65591       -2.51973        0.99957
H          2.60408       -1.27732        2.28975
H          1.08023       -1.76146        1.45732
S         -1.75695       -1.06676       -0.25928
O         -2.82446       -0.05559       -0.28032
O         -1.06182       -1.15745        1.05815
O         -0.76887       -0.87449       -1.37336
H          0.77618       -0.90410       -1.17739
C         -2.50291       -2.65891       -0.54849
H         -2.99283       -2.62683       -1.52171
H         -1.71802       -3.41509       -0.53644
H         -3.22936       -2.83995        0.24385
N         -0.73379        2.19982       -1.24250
H         -0.65341        1.24173       -1.58610
C          0.39874        3.01724       -1.69218
H          0.49842        3.06053       -2.78301
H          0.28444        4.03754       -1.31504
H          1.31562        2.59930       -1.27149
H         -1.61460        2.55141       -1.60550
N         -0.78786        1.62806        1.43520
H          0.07467        1.96040        1.86103
C         -2.01639        2.13316        2.07450
H         -2.06454        3.21774        1.96753
H         -2.86228        1.67091        1.56474
H         -2.03099        1.86547        3.13168
H         -0.75799        1.90359        0.38321
