35
2msa1ma1dma_135.log	Energy: -978625.0519112
S          1.08265        1.62716        0.07967
O          1.35688        0.65614       -1.01473
O          1.70033        1.22887        1.35580
O         -0.38447        1.91781        0.20373
C          1.80102        3.17553       -0.42864
H          2.87269        3.02071       -0.55541
H          1.34008        3.47567       -1.36944
H          1.60642        3.91102        0.35191
S         -2.94119       -0.29136       -0.02942
O         -4.11091       -0.91802        0.54623
O         -2.06433       -1.11703       -0.87541
O         -2.09889        0.32853        1.14733
H         -1.35529        0.95353        0.80483
C         -3.40619        1.12810       -0.99587
H         -3.95396        0.76198       -1.86455
H         -4.03738        1.76520       -0.37656
H         -2.49344        1.64639       -1.29422
N          3.54186       -1.19365        0.60106
H          3.09720       -0.35154        0.96787
C          4.27537       -0.87591       -0.62516
H          5.08491       -0.14346       -0.49196
H          4.71245       -1.78914       -1.04232
H          3.57220       -0.46795       -1.35580
H          4.18214       -1.52139        1.31710
N          0.52621       -1.84600       -0.19627
C          0.44262       -2.05115        1.26818
C          1.15850       -2.96578       -0.92251
H         -0.43054       -1.66334       -0.55126
H          1.45128       -2.21161        1.64602
H          0.01041       -1.15950        1.72135
H         -0.19682       -2.91311        1.46577
H          2.17877       -3.06443       -0.54920
H          0.58731       -3.87890       -0.74734
H          1.16719       -2.73285       -1.98761
H          1.04782       -0.96766       -0.40629
