30
2msa1eda_144.log	Energy: -953186.0477504
S         -0.69695       -1.96902       -0.09039
O         -0.21334       -3.32810       -0.18817
O         -0.27950       -1.01811       -1.14114
O         -0.33897       -1.32108        1.31574
H          0.58960       -0.94842        1.28835
C         -2.46212       -1.93698        0.02371
H         -2.83784       -2.34673       -0.91503
H         -2.74767       -2.57859        0.85800
H         -2.80252       -0.90625        0.17915
S          2.72483        0.53785        0.05659
O          4.16067        0.46080       -0.06267
O          2.06171       -0.29871        1.07087
O          2.09530        0.19806       -1.36269
H          1.23680       -0.29512       -1.28384
C          2.23024        2.21987        0.32188
H          2.66224        2.52516        1.27611
H          2.64121        2.81703       -0.49255
H          1.13394        2.25420        0.34524
H         -2.24733        3.19937        0.87784
H         -1.76679        3.38308       -0.80066
H         -4.13982        2.90815       -0.70443
H         -3.29664        1.56207       -1.48380
H         -4.11918        1.52756        1.33586
H         -4.84595        0.72084        0.12322
H         -1.27902        1.04811        0.90991
H         -0.92708        1.08388       -0.67026
C         -2.10165        2.64832       -0.06003
C         -3.44257        2.07458       -0.52500
N         -1.03701        1.67626        0.14927
N         -3.95307        1.09042        0.43342
