43
2msa1eda1tma_60.log	Energy: -1062683.3545867
S          0.77951        2.23339       -0.30090
O          0.65518        0.98651       -1.14002
O          2.06981        2.31882        0.39242
O         -0.41649        2.36862        0.57254
C          0.70031        3.58677       -1.45923
H          1.53938        3.49349       -2.14895
H         -0.24872        3.52822       -1.99229
H          0.76867        4.51640       -0.89375
S          2.57828       -1.54384        0.32966
O          3.19621       -2.84100        0.15385
O          1.35237       -1.46675        1.13937
O          2.29194       -0.95658       -1.10401
H          1.67995       -0.13828       -1.08297
C          3.74669       -0.39850        1.02158
H          3.96441       -0.73568        2.03572
H          4.64419       -0.42632        0.40352
H          3.29183        0.59586        1.01778
H         -2.08260       -1.43149        2.51920
H         -1.09051       -0.09013        3.11173
H         -3.41781        0.49973        3.46520
H         -2.73963        1.54309        2.21123
H         -4.54384       -0.71532        1.74402
H         -4.72774        0.84400        1.29487
H         -0.26079       -0.75331        1.01521
H         -1.75428       -0.66459        0.23175
C         -1.81950       -0.38265        2.35245
C         -3.04636        0.51515        2.43010
N         -1.17448       -0.27038        1.02998
N         -4.04155        0.11237        1.43899
H         -0.97307        0.72880        0.81737
N         -2.31304       -1.22118       -1.33636
C         -1.19875       -1.92555       -1.96743
H         -0.30493       -1.29917       -1.93697
H         -0.98961       -2.85161       -1.42448
H         -1.41583       -2.17652       -3.01920
C         -3.51559       -2.04188       -1.30483
H         -3.31388       -2.97462       -0.76950
H         -4.30582       -1.49933       -0.78001
H         -3.86819       -2.29494       -2.31973
C         -2.56439        0.05895       -1.99474
H         -3.34757        0.59356       -1.44963
H         -1.64789        0.65519       -1.97699
H         -2.88339       -0.07617       -3.04216
