37
2msa1ma1eda_210.log	Energy: -1013361.5140315
S         -2.23695       -0.77518       -0.50579
O         -2.72897        0.56566       -0.09045
O         -2.22630       -1.78273        0.56194
O         -0.90309       -0.64239       -1.19965
C         -3.36118       -1.34255       -1.76775
H         -4.34792       -1.43881       -1.31431
H         -3.37464       -0.60852       -2.57319
H         -3.00629       -2.30878       -2.12673
S          2.36902       -0.81580       -0.09094
O          2.92612       -1.22797        1.18542
O          1.93575        0.58109       -0.24085
O          1.21239       -1.77844       -0.51169
H          0.31644       -1.30249       -0.74690
C          3.58137       -1.14132       -1.35340
H          4.46003       -0.53627       -1.12779
H          3.82768       -2.20253       -1.31729
H          3.15605       -0.87255       -2.32005
N          0.84421        3.30911       -1.04970
H          1.04620        4.28295       -1.24805
C          0.11653        2.68382       -2.16388
H          0.64977        2.73759       -3.12135
H         -0.06357        1.63034       -1.93043
H         -0.85448        3.17264       -2.28074
H          1.73098        2.82923       -0.91399
H          0.51855        2.11613        2.72314
H         -1.20299        2.56799        2.70111
H         -0.75778        0.41699        3.99153
H         -1.88414        0.21180        2.64449
H          0.83082       -0.82851        2.74144
H         -0.52771       -1.39369        1.95610
H         -0.06812        2.61011        0.41740
H          0.19686        0.99803        0.64243
C         -0.47647        1.81757        2.38139
C         -0.83939        0.41762        2.89658
N         -0.44320        1.76666        0.90514
N         -0.00668       -0.57019        2.23625
H         -1.37159        1.50232        0.51363
