44
2msa2tma_18.log	Energy: -1052602.0024926
S         -0.67212        2.10125        0.94731
O         -1.07831        3.47485        1.16254
O          0.54983        1.81788        1.92737
O         -0.26804        1.69048       -0.40191
H          1.92353        0.36934       -0.64515
C         -1.92344        0.98526        1.52289
H         -2.27939        1.35605        2.48410
H         -2.71918        0.94676        0.77399
H         -1.46584       -0.00251        1.61337
S          1.26985       -1.65155        0.90680
O          1.54033       -2.23844       -0.41846
O         -0.12818       -1.68641        1.35188
O          1.84636       -0.24352        0.97061
H          1.03362        0.98762        1.63509
C          2.22105       -2.57497        2.10108
H          1.85765       -3.60293        2.08786
H          3.27275       -2.53344        1.81752
H          2.06582       -2.12555        3.08202
N         -3.40572       -0.81683       -0.78618
C         -4.59834       -0.68794       -1.60081
H         -5.48617       -0.67421       -0.96108
H         -4.56634        0.25217       -2.16040
H         -4.70907       -1.51818       -2.32629
C         -2.20066       -0.78553       -1.59653
H         -2.14343        0.16692       -2.13310
H         -1.32356       -0.86876       -0.94943
H         -2.16887       -1.61139       -2.33455
C         -3.44551       -2.01503        0.03625
H         -2.53492       -2.07862        0.63810
H         -4.31054       -1.97694        0.70616
H         -3.51916       -2.93854       -0.57053
N          2.26365        0.58905       -1.61302
C          2.48485        2.05424       -1.69800
H          1.53234        2.55400       -1.52862
H          3.19553        2.34553       -0.92372
H          2.88750        2.29314       -2.68491
C          3.52812       -0.17262       -1.77049
H          4.23621        0.16768       -1.01442
H          3.30541       -1.22853       -1.61638
H          3.92998        0.00530       -2.77039
C          1.22735        0.12278       -2.57219
H          1.05662       -0.93833       -2.38819
H          0.31340        0.68337       -2.38342
H          1.59051        0.29348       -3.58839
