42
2msa2eda_68.log	Energy: -1072768.2238901
S          3.00800        0.33951        0.06496
O          2.10167        0.36102       -1.13027
O          3.21143       -1.02107        0.58272
O          2.55903        1.32753        1.08706
C          4.58783        0.93422       -0.51312
H          4.45048        1.93022       -0.93406
H          5.26794        0.96462        0.33844
H          4.95307        0.24109       -1.27113
S         -2.72928       -0.45113       -0.19387
O         -2.41278       -0.83645       -1.58333
O         -3.45578        0.81177       -0.02218
O         -1.45741       -0.47088        0.64750
C         -3.72944       -1.75684        0.49643
H         -4.64678       -1.81880       -0.08982
H         -3.16248       -2.68785        0.43727
H         -3.95347       -1.50460        1.53322
H          0.66586        3.23698       -0.58451
H         -0.17449        1.82872       -1.24118
H         -1.56437        3.94157       -1.44304
H         -2.35123        2.69497       -0.46069
H         -1.09891        5.13720        0.54776
H         -2.52476        4.44407        0.96149
H          0.91221        1.67362        1.04699
H         -0.43348        2.59761        1.55424
C         -0.20982        2.59365       -0.46495
C         -1.50969        3.39255       -0.49466
N         -0.08723        1.92810        0.85661
N         -1.56833        4.25011        0.69209
H         -0.66929        1.06300        0.88576
H         -0.01442       -3.74599       -1.28176
H          1.69407       -3.22561       -1.35320
H          1.28834       -4.33839        0.75151
H          1.57343       -2.62495        1.06818
H         -0.42782       -3.82249        2.16278
H         -0.77063       -2.38048        1.47711
H          1.09562       -0.99348       -1.17511
H         -0.26916       -1.58834       -1.96268
C          0.73471       -3.07664       -0.85385
C          0.85720       -3.33881        0.64114
N          0.30029       -1.67555       -1.11955
N         -0.46243       -3.32987        1.27800
H         -0.32908       -1.31046       -0.37303
