37
2msa1ma1eda_46.log	Energy: -1013373.9953329
S         -2.66454       -0.49224        0.20978
O         -2.37371       -1.29015       -1.01331
O         -3.12171        0.88021       -0.05179
O         -1.49735       -0.54445        1.15862
H         -0.51519        0.84729        1.38860
C         -3.99651       -1.33630        1.04500
H         -4.85991       -1.33406        0.37918
H         -3.68067       -2.35665        1.26244
H         -4.21933       -0.79597        1.96513
S          2.81749       -0.02234        0.19063
O          2.28344       -1.03265        1.13066
O          2.56644        1.37465        0.64929
O          2.34385       -0.25584       -1.20455
H          0.94662       -1.30317       -1.08879
C          4.59103       -0.19481        0.15109
H          4.97250       -0.02251        1.15754
H          4.82676       -1.20525       -0.18335
H          4.98785        0.54394       -0.54532
N          0.26009       -1.97635       -0.68326
H          0.23655       -1.73789        0.31459
C          0.71196       -3.36493       -0.88972
H         -0.00921       -4.05162       -0.44657
H          0.79430       -3.55846       -1.95889
H          1.68494       -3.48587       -0.41397
H         -0.70507       -1.79146       -1.03049
H         -0.42477        1.01747       -0.97596
H          0.69417        2.33026       -1.31852
H         -0.13785        3.66146        0.50632
H         -1.65843        2.72500        0.57189
H          1.01945        1.58779        1.20893
H         -0.08576        2.14418        2.35174
H         -1.00094        2.58227       -2.88543
H         -2.19228        2.33810       -1.78331
C         -0.33194        2.11412       -1.01042
C         -0.58411        2.67240        0.38906
N         -1.27049        2.74544       -1.92265
N          0.00024        1.75966        1.41394
