32
2msa2ma_43.log	Energy: -953968.6096008
S         -1.86434       -1.13147        0.03218
O         -2.74152       -0.06836       -0.48645
O         -1.53283       -1.04766        1.46106
O         -0.60585       -1.20977       -0.82659
C         -2.68348       -2.69227       -0.23489
H         -3.61402       -2.67985        0.33326
H         -2.88253       -2.79936       -1.30107
H         -2.02671       -3.48643        0.12041
S          2.51211       -0.15634        0.05743
O          2.14005        0.62420        1.23038
O          2.41238        0.52827       -1.23735
O          1.74172       -1.52038        0.01030
H          0.74897       -1.41424       -0.27482
C          4.16524       -0.77214        0.25779
H          4.82278        0.09632        0.30636
H          4.20634       -1.34022        1.18674
H          4.40888       -1.39715       -0.60058
N         -0.26390        1.55553       -1.30750
H          0.71862        1.67930       -1.56391
H         -0.45890        0.54554       -1.41319
C         -1.21263        2.37808       -2.07797
H         -2.22032        2.09882       -1.76943
H         -1.03368        3.43319       -1.86665
H         -1.09094        2.19325       -3.14592
H         -0.36338        1.73797       -0.23362
N         -0.61338        1.85040        1.38107
H         -0.64313        0.87172        1.67332
C         -1.87782        2.50233        1.73757
H         -2.07704        2.49888        2.81564
H         -1.86993        3.54002        1.39012
H         -2.68947        1.97194        1.23366
H          0.18160        2.26762        1.85529
