40
2msa1dma1eda_504.log	Energy: -1038009.3991584
S          1.47880        1.60890        0.66898
O          0.64794        2.53087       -0.12481
O          2.45850        0.83292       -0.15730
O          0.69144        0.69374        1.54044
C          2.48164        2.61412        1.75348
H          3.09621        3.26786        1.13412
H          1.81548        3.20147        2.38623
H          3.10678        1.95578        2.35690
S         -2.80070        0.24911       -0.17912
O         -1.74595       -0.21152       -1.08459
O         -3.51001       -0.70593        0.64096
O         -3.90884        0.96185       -1.12616
H         -3.50212        1.15273       -1.98352
C         -2.21558        1.59320        0.80733
H         -1.47168        1.18105        1.49521
H         -1.70501        2.30801        0.15955
H         -3.07486        2.01900        1.32508
N          0.62031       -2.91723        1.46355
C         -0.63589       -2.37080        1.98819
C          1.77570       -2.52235        2.27412
H          0.55957       -3.92987        1.42666
H         -0.55999       -1.27977        1.98493
H         -1.47031       -2.66559        1.34739
H         -0.84220       -2.69921        3.01695
H          1.86897       -1.43284        2.23471
H          1.67618       -2.82569        3.32661
H          2.68434       -2.96861        1.86130
H          1.89442       -2.55304       -2.17279
H          0.12673       -2.45186       -2.39996
H          1.19660       -1.24272       -4.19287
H          0.40016       -0.06944       -3.13692
H          2.78909        0.40057       -3.84813
H          2.58504        0.44909       -2.22379
H          0.82205       -2.05465       -0.04945
H          1.63794       -0.65090       -0.56585
C          1.03243       -1.88210       -2.17627
C          1.24346       -0.77657       -3.20346
N          0.87739       -1.32125       -0.81386
N          2.55371       -0.16214       -3.03949
H          0.00193       -0.78361       -0.76020
