35
2msa1ma1dma_136.log	Energy: -978623.5403601
S         -2.83339       -0.26979       -0.19838
O         -2.67421       -0.83643       -1.52914
O         -2.29056        1.19088       -0.12471
O         -2.28717       -1.06986        0.91314
C         -4.55008        0.02562        0.14011
H         -4.94545        0.66777       -0.64634
H         -5.04544       -0.94555        0.13355
H         -4.63521        0.49874        1.11774
S          1.21927        1.69019        0.09639
O          2.50515        1.65908       -0.60394
O          1.15662        0.79983        1.28734
O          0.06466        1.41427       -0.83514
H         -1.27509        1.28025       -0.41221
C          0.95802        3.34507        0.70497
H          1.76325        3.57874        1.40165
H          0.97699        4.02440       -0.14752
H         -0.00873        3.38015        1.20820
N          3.61659       -1.16979        0.18145
H          3.34539       -0.19464        0.29453
C          4.24956       -1.32785       -1.12950
H          5.19076       -0.77391       -1.24766
H          4.44885       -2.38745       -1.32207
H          3.56131       -0.96610       -1.89821
H          4.28494       -1.37359        0.91771
N          0.41657       -1.74467        0.57966
C          0.92992       -2.86762        1.38833
C          0.55977       -1.94329       -0.88283
H         -0.58322       -1.57043        0.79037
H          1.99741       -2.96151        1.18514
H          0.76526       -2.64679        2.44330
H          0.39837       -3.78073        1.11457
H          1.60865       -2.15062       -1.09021
H         -0.07941       -2.77114       -1.19250
H          0.24863       -1.02771       -1.38712
H          0.89760       -0.85890        0.85433
