35
2msa1ma1dma_159.log	Energy: -978622.7367590
S         -2.61696       -0.98476       -0.33130
O         -3.99384       -1.47561       -0.32036
O         -2.09310       -0.52079        0.98295
O         -2.36079        0.07194       -1.37761
H         -1.62474        1.24347       -0.67164
C         -1.57123       -2.35693       -0.81068
H         -1.70370       -3.15088       -0.07387
H         -1.88912       -2.69917       -1.79634
H         -0.53758       -2.00567       -0.82959
S          1.68820       -0.09005        0.96905
O          1.41608       -0.64052       -0.40349
O          1.19588        1.29480        1.12241
O          3.14144       -0.23248        1.30020
H          4.00172       -0.77052       -0.07359
C          0.78655       -1.10430        2.11223
H         -0.27627       -1.02323        1.85758
H          1.14439       -2.12945        2.01165
H          0.98409       -0.72374        3.11494
N          3.92896       -0.95477       -1.10787
H          4.37643       -1.83108       -1.36416
C          4.42122        0.20206       -1.88768
H          4.22088        0.04348       -2.94688
H          3.88751        1.08582       -1.53872
H          5.49023        0.33106       -1.72091
H          2.87729       -1.02581       -1.16094
N         -1.15724        2.06754       -0.16792
C         -2.11923        2.62594        0.80275
C         -0.66655        3.02960       -1.16764
H         -0.34588        1.67783        0.34655
H         -2.99029        3.00245        0.26349
H         -2.42260        1.81533        1.46545
H         -1.64575        3.43386        1.36470
H         -1.51012        3.40329       -1.75059
H         -0.16012        3.85871       -0.66918
H          0.03159        2.51496       -1.82819
