35
2msa1ma1dma_60.log	Energy: -978629.7469622
S          1.01552       -1.65978        0.30813
O          0.00575       -1.81607        1.36539
O          2.36634       -1.30266        0.78224
O          0.55440       -0.68365       -0.75694
C          1.15413       -3.22871       -0.53151
H          1.48049       -3.96830        0.19998
H          0.17500       -3.49166       -0.93317
H          1.88721       -3.12917       -1.33216
S         -2.70384        0.29685       -0.34397
O         -3.93814        0.73364       -0.96162
O         -1.77644        1.30743        0.17697
O         -1.93032       -0.59780       -1.39362
H         -0.94492       -0.66412       -1.15238
C         -3.06388       -0.84040        0.97363
H         -3.58226       -0.27733        1.75098
H         -3.70947       -1.62219        0.57313
H         -2.11724       -1.24852        1.33731
N          3.47434        1.15259       -0.34028
H          4.35814        1.59036       -0.10300
C          3.34329        0.97505       -1.79238
H          4.15629        0.38597       -2.23339
H          2.39870        0.46078       -1.98797
H          3.31820        1.95149       -2.28479
H          3.43539        0.23712        0.11428
N          0.95629        1.88510        0.53505
C          0.56748        3.23583        0.08660
C          0.80206        1.66317        1.98918
H          0.38301        1.18060        0.04752
H          1.19060        3.97278        0.59690
H          0.72329        3.30622       -0.99045
H         -0.48642        3.39836        0.31059
H          1.43501        2.37198        2.52650
H         -0.24577        1.80479        2.25454
H          1.10553        0.64070        2.21662
H          1.96680        1.68653        0.24663
