30
2msa1eda_101.log	Energy: -953195.8163973
S         -1.64649        1.55665       -0.08075
O         -2.58516        0.69277       -0.83140
O         -0.76349        2.39176       -0.90302
O         -0.87215        0.73414        0.92793
C         -2.64606        2.65550        0.91086
H         -1.98235        3.27750        1.51172
H         -3.23755        3.27111        0.23250
H         -3.29402        2.05393        1.54847
S          3.04006       -0.19748        0.06478
O          3.74966       -0.27229        1.32980
O          2.20637       -1.31702       -0.35579
O          4.15250       -0.00046       -1.09957
H          5.02604       -0.01684       -0.68253
C          2.11532        1.30335       -0.06064
H          1.27590        1.22751        0.63716
H          2.77750        2.13070        0.19281
H          1.71942        1.40107       -1.07178
H         -1.16759       -3.68640        0.36083
H         -1.15068       -2.59322        1.77235
H         -3.49833       -3.12923        0.86650
H         -3.11862       -1.40405        0.96036
H         -3.82298       -2.77969       -1.34975
H         -3.24704       -1.22663       -1.24031
H          0.42286       -1.91733       -0.07875
H         -0.95871       -1.69908       -1.00699
C         -1.40419       -2.67976        0.71388
C         -2.87369       -2.33775        0.44218
N         -0.58165       -1.71543       -0.05029
N         -3.07528       -2.19939       -0.99656
H         -0.69258       -0.73159        0.34960
