41
2msa1dma1tma_33.log	Energy: -1027948.0294696
S         -0.48719        2.18527        0.10864
O         -1.83506        1.60855        0.30112
O          0.18097        1.61162       -1.11540
O          0.38042        2.11590        1.29784
C         -0.72144        3.91262       -0.27416
H         -1.21988        4.37881        0.57610
H          0.25821        4.36142       -0.43934
H         -1.33590        3.98512       -1.17159
S          2.58119       -0.72148       -0.04314
O          3.69966       -1.56091       -0.42219
O          1.28381       -1.35839        0.21090
O          2.41189        0.37309       -1.16443
H          1.53407        0.88565       -1.08614
C          3.00795        0.23186        1.39630
H          3.12592       -0.47006        2.22327
H          3.94951        0.74148        1.19144
H          2.19935        0.94437        1.58328
N         -1.30531       -0.92869       -1.52352
C         -2.53235       -0.43940       -2.14961
C         -0.71785       -2.06200       -2.23552
H         -0.63865       -0.15472       -1.50467
H         -3.30668       -1.21456       -2.10351
H         -2.87359        0.44420       -1.60614
H         -2.38405       -0.17596       -3.20693
H         -1.41408       -2.90879       -2.21499
H         -0.50457       -1.82989       -3.28901
H          0.21035       -2.35269       -1.74066
N         -1.75280       -1.46752        1.11380
C         -1.01845       -0.78227        2.20623
H          0.04667       -0.93937        2.04916
H         -1.23553        0.28281        2.15869
H         -1.34199       -1.20765        3.16095
C         -3.20396       -1.18744        1.19057
H         -3.34034       -0.10841        1.11289
H         -3.70356       -1.68219        0.35602
H         -3.60157       -1.56300        2.13712
C         -1.46036       -2.91807        1.09766
H         -1.98061       -3.37376        0.25352
H         -0.38457       -3.04713        0.97377
H         -1.79837       -3.37290        2.03228
H         -1.45214       -1.12038        0.12303
