35
2msa1a1tma_66.log	Energy: -978617.3774202
S         -2.55658       -0.97575       -0.04546
O         -1.54558       -1.99574        0.21284
O         -2.06534        0.15112       -0.92212
O         -3.19328       -0.38740        1.17650
H         -2.54625        1.01726        1.47308
C         -3.88883       -1.73387       -0.95359
H         -3.47264       -2.15640       -1.86829
H         -4.31192       -2.51874       -0.32625
H         -4.63517       -0.97301       -1.18043
S          0.78682        1.69555       -0.36286
O          0.64780        1.15718        1.00541
O          0.08375        2.95997       -0.58112
O          0.34812        0.62441       -1.41320
H         -0.63748        0.34731       -1.25083
C          2.50333        1.82256       -0.75175
H          2.92672        2.55850       -0.06719
H          2.93099        0.82139       -0.59128
H          2.59354        2.15470       -1.78592
N         -1.96986        1.91877        1.54691
H         -2.05777        2.44119        0.67294
H         -0.96779        1.64751        1.61045
H         -2.24875        2.49428        2.33583
N          3.15365       -1.22985        0.15408
C          4.32293       -1.87086       -0.42115
H          4.17812       -2.00852       -1.49686
H          5.20788       -1.24405       -0.26965
H          4.52262       -2.86250        0.02836
C          3.33272       -0.98917        1.57696
H          4.21466       -0.36019        1.73986
H          2.45609       -0.46763        1.96946
H          3.47045       -1.92789        2.14621
C          1.94952       -2.01488       -0.09245
H          1.07515       -1.51721        0.33093
H          1.78877       -2.11836       -1.16884
H          2.02062       -3.02590        0.35004
