43
2msa1eda1tma_84.log	Energy: -1062683.0166414
S         -0.94378        2.14113       -0.47149
O         -2.08330        1.45289       -1.09821
O          0.36467        1.78848       -1.12171
O         -0.87257        1.94496        1.00107
C         -1.15551        3.88872       -0.74470
H         -1.18427        4.05930       -1.82097
H         -2.09416        4.19145       -0.28039
H         -0.31256        4.40992       -0.29093
S          2.86737       -0.16127        0.30196
O          2.76708       -0.85274       -0.97661
O          2.19167       -0.79619        1.44244
O          2.43868        1.33445        0.17489
H          1.55136        1.49985       -0.36033
C          4.57445        0.05461        0.73994
H          4.99200       -0.94109        0.89185
H          5.07525        0.56446       -0.08243
H          4.62377        0.63951        1.65793
H         -1.84471       -2.33374        2.10415
H         -1.22804       -1.15033        3.28508
H         -3.64832       -0.86360        2.87917
H         -2.72511        0.57903        2.43158
H         -4.49045       -0.39180        0.82138
H         -3.07388        0.07744        0.16767
H          0.32240       -1.05322        1.54649
H         -0.81726       -1.26618        0.32596
C         -1.65103       -1.27322        2.28452
C         -2.93640       -0.46336        2.15040
N         -0.64599       -0.81870        1.29271
N         -3.49774       -0.59317        0.81073
H         -0.67290        0.21961        1.21387
N         -0.83357       -2.20060       -1.10285
C         -0.49786       -1.32539       -2.23032
H         -1.24466       -0.53272       -2.30895
H          0.47625       -0.86287       -2.05932
H         -0.46120       -1.89332       -3.17512
C          0.20364       -3.21179       -0.90308
H          1.17074       -2.72287       -0.76364
H         -0.02939       -3.80760       -0.01378
H          0.27690       -3.89433       -1.76599
C         -2.13852       -2.82548       -1.30282
H         -2.39082       -3.44484       -0.43738
H         -2.90442       -2.05386       -1.38927
H         -2.14544       -3.45803       -2.20693
