42
2msa2eda_489.log	Energy: -1072746.7567660
S         -0.51557       -1.86905       -0.41306
O         -1.57666       -2.76860       -0.82672
O         -0.37290       -0.61852       -1.17796
O          0.82746       -2.67323       -0.45715
H          1.66468       -2.09317       -0.35800
C         -0.72807       -1.44833        1.29758
H         -1.66523       -0.89219        1.37410
H         -0.78796       -2.38179        1.85751
H          0.12804       -0.84313        1.60374
S          3.09126        0.03229        0.35728
O          2.98911       -1.34983       -0.19512
O          1.88381        0.42557        1.11489
O          3.44901        1.03274       -0.69034
H          2.04968        1.52141       -1.40941
C          4.46575       -0.00061        1.48674
H          4.24589       -0.73482        2.26182
H          5.35705       -0.28423        0.92721
H          4.57551        0.99543        1.91558
H         -1.47526        2.12272       -1.13394
H         -1.36241        3.72632       -0.40531
H          0.45962        3.68782       -1.90737
H          1.20920        3.30330       -0.34412
H          0.53183        0.84615       -1.29449
H          0.93429        1.63533       -2.67524
H         -1.60494        1.81762        1.22049
H          0.00597        1.51545        0.95102
C         -0.86632        2.74976       -0.45602
C          0.49857        2.95743       -1.09767
N         -0.72620        2.21783        0.88584
N          1.03672        1.67768       -1.66393
H         -5.40029        1.18378        0.49985
H         -4.08623        2.17995       -0.14129
H         -4.36655        0.14019       -1.48679
H         -2.78319        0.16736       -0.70369
H         -5.05804       -1.45981        0.15467
H         -3.54246       -1.94404       -0.25131
H         -3.93310        1.88298        2.28796
H         -3.71572        0.27276        2.04574
C         -4.30634        1.23406        0.36747
C         -3.85772        0.07237       -0.51321
N         -3.57830        1.19307        1.63471
N         -4.07870       -1.19575        0.17962
