40
2msa1dma1eda_167.log	Energy: -1038020.8401244
S          2.62682       -0.70338        0.26617
O          2.67267       -0.99442       -1.16121
O          1.55892       -1.38131        1.01992
O          2.58039        0.82737        0.54234
C          4.19155       -1.11566        0.99757
H          4.96419       -0.53238        0.49697
H          4.14805       -0.88324        2.06098
H          4.35009       -2.18220        0.83623
S         -0.42662        2.44374       -0.33698
O         -1.81558        2.71400        0.05111
O         -0.25959        1.68672       -1.60011
O          0.32622        1.76513        0.78921
H          1.58927        1.22965        0.61655
C          0.37993        4.01520       -0.57543
H         -0.12694        4.53046       -1.39160
H          0.29510        4.58126        0.35226
H          1.42499        3.83064       -0.82614
N         -2.88729       -0.05615        0.65059
C         -2.36780       -0.24454        2.00350
C         -4.22851       -0.59453        0.47585
H         -2.86193        0.93976        0.42724
H         -2.21378       -1.31472        2.18104
H         -1.40801        0.27101        2.09337
H         -3.04937        0.14403        2.77485
H         -4.19560       -1.67933        0.61848
H         -4.95425       -0.17228        1.18838
H         -4.57952       -0.38874       -0.53916
H         -1.40942       -2.01825       -2.39030
H          0.34612       -2.11565       -2.13224
H         -0.65383       -4.25550       -1.51960
H         -0.00179       -3.45491       -0.08483
H         -2.84585       -3.60410       -0.77947
H         -2.10518       -4.12224        0.58278
H         -0.45329       -0.06464       -1.24189
H         -1.64650       -0.76581       -0.29005
C         -0.62608       -2.12273       -1.63345
C         -0.79774       -3.40656       -0.83502
N         -0.69086       -0.94517       -0.74650
N         -2.08197       -3.41205       -0.13936
H         -0.00744       -1.05202        0.01782
