42
2msa2eda_24.log	Energy: -1072770.7496157
S         -2.91880       -0.42281       -0.11288
O         -3.02178       -1.77153        0.47357
O         -1.93857       -0.35911       -1.24576
O         -2.66171        0.65596        0.87968
C         -4.50532       -0.04968       -0.84087
H         -4.72689       -0.81520       -1.58458
H         -5.25076       -0.05960       -0.04555
H         -4.44951        0.93468       -1.30591
S          3.09244        0.03901       -0.24269
O          2.96265        1.23292       -1.09154
O          2.73152       -1.23422       -0.94231
O          2.37063        0.16151        1.05790
C          4.82001       -0.13789        0.16861
H          4.93745       -1.01457        0.80555
H          5.37455       -0.25858       -0.76212
H          5.13642        0.76521        0.69082
H          0.97498        2.42555       -0.75550
H         -0.46255        1.46656       -1.18180
H         -0.95159        3.92146       -1.37825
H         -1.95759        3.12507       -0.15529
H          0.37100        4.81699        0.40608
H         -1.15357        4.95345        0.98974
H          0.78553        0.90662        0.96373
H          0.05884        2.31485        1.54936
C         -0.05579        2.19326       -0.47708
C         -0.93512        3.43355       -0.39513
N         -0.02531        1.55532        0.86469
N         -0.44940        4.29096        0.68881
H         -0.92247        1.05350        1.02468
H         -1.09456       -3.36321       -0.14285
H          0.53046       -4.02311       -0.49250
H          0.34689       -3.54818        1.88393
H          1.53517       -2.46015        1.14117
H         -1.21506       -1.67483        1.80783
H          0.19888       -1.11337        2.46399
H          0.06905       -2.42403       -2.11919
H         -0.54432       -1.31562       -1.06421
C         -0.02455       -3.14041       -0.16655
C          0.46736       -2.69153        1.20240
N          0.18247       -2.06343       -1.17434
N         -0.23134       -1.48876        1.62690
H          1.15504       -1.65933       -1.09332
