34
2msa1a1eda_284.log	Energy: -988692.8595271
S         -2.90589        0.09617       -0.31499
O         -4.10649       -0.01124       -1.11793
O         -2.13937        1.34424       -0.35449
O         -1.95321       -1.10193       -0.72663
H         -0.97968       -0.88832       -0.58257
C         -3.29610       -0.26743        1.37950
H         -4.00534        0.49357        1.70885
H         -3.75572       -1.25546        1.40987
H         -2.37059       -0.22293        1.96541
S          1.62328       -1.58017       -0.05234
O          0.57360       -0.60948       -0.49986
O          1.38522       -2.11451        1.29167
O          2.97082       -0.94298       -0.22108
H          2.90930        0.52569        0.29543
C          1.58655       -2.94309       -1.19796
H          0.60514       -3.41276       -1.12305
H          1.75569       -2.55520       -2.20228
H          2.37071       -3.64424       -0.91200
N         -0.24848        0.28597        2.55887
H          0.07760        0.67156        3.43701
H         -0.12421        0.97329        1.82187
H          0.29485       -0.54406        2.33085
H          3.08104        3.45302       -0.28559
H          3.47753        2.08053       -1.35158
H          1.22413        3.16931       -1.89671
H          1.10168        1.44499       -1.49148
H          0.26783        3.65561        0.19295
H         -0.45189        2.20723       -0.08985
H          3.60238        1.77137        1.22615
H          1.92641        1.70171        1.06768
C          2.78087        2.44849       -0.59683
C          1.32950        2.43507       -1.08952
N          2.83796        1.55606        0.59169
N          0.44842        2.66769        0.05112
