37
2msa1ma1eda_351.log	Energy: -1013356.8679827
S         -1.01310        2.21260        0.16731
O         -1.56316        1.65762        1.42588
O         -1.90232        3.08484       -0.58896
O         -0.47588        1.06318       -0.69467
C          0.44079        3.14527        0.61826
H          0.11512        3.95294        1.27441
H          1.13120        2.47674        1.13524
H          0.88809        3.54986       -0.29040
S          2.52371       -0.24962       -0.21389
O          2.25320       -1.63941       -0.58597
O          2.14621        0.14159        1.14338
O          1.90389        0.73571       -1.25823
H          0.88360        0.91946       -1.04948
C          4.25011        0.07196       -0.47674
H          4.80427       -0.58980        0.18929
H          4.48189       -0.14494       -1.51919
H          4.44644        1.11699       -0.23930
N         -3.41863       -1.72861       -0.61391
H         -2.80755       -2.33021       -1.16362
C         -3.64435       -0.45418       -1.31579
H         -4.14652       -0.57277       -2.28311
H         -4.24448        0.20529       -0.68514
H         -2.68355        0.03900       -1.48300
H         -4.29318       -2.22047       -0.46566
H          0.56615       -1.76743        1.65790
H         -0.83170       -2.30503        2.60695
H          0.15245       -4.10787        1.15681
H         -1.57300       -3.82535        0.89180
H          0.52000       -2.68691       -0.83036
H         -0.46700       -3.93655       -1.21423
H         -1.39746       -0.19855        1.60264
H         -0.80524       -0.61312        0.17633
C         -0.46608       -2.11849        1.59484
C         -0.57626       -3.38822        0.75464
N         -1.26822       -1.02679        1.00005
N         -0.40250       -3.08813       -0.66295
H         -2.20453       -1.35060        0.63234
