32
2msa2ma_45.log	Energy: -953967.5988525
S         -1.92974       -1.19457        0.07155
O         -3.22112       -1.37926        0.71967
O         -0.95459       -0.43763        0.96945
O         -1.96982       -0.54092       -1.26333
H         -1.06585        0.88324       -1.36203
C         -1.17817       -2.79248       -0.17717
H         -1.07840       -3.27541        0.79545
H         -1.84295       -3.36766       -0.82223
H         -0.20594       -2.64952       -0.65278
S          2.20034       -0.45809       -0.12195
O          2.06673        0.98210       -0.40044
O          1.81624       -1.36084       -1.19881
O          1.45851       -0.81482        1.20324
H          0.40212       -0.69556        1.09937
C          3.87944       -0.77268        0.35796
H          4.50372       -0.53126       -0.50284
H          4.12461       -0.13507        1.20667
H          3.96862       -1.82743        0.61619
N         -1.27859        2.47187        1.35536
H         -2.01581        3.08895        1.67898
C         -0.02045        2.73830        2.06317
H         -0.09340        2.60316        3.14896
H          0.74797        2.05946        1.68366
H          0.30520        3.76234        1.86056
H         -1.56997        1.51109        1.53973
N         -0.54693        1.78697       -1.25217
H         -0.89345        2.19917       -0.33679
C         -0.75279        2.68485       -2.40143
H         -0.23685        3.62977       -2.22751
H         -0.36243        2.21741       -3.30557
H         -1.82034        2.86842       -2.52363
H          0.44640        1.55276       -1.10559
