38
2msa2dma_109.log	Energy: -1003284.6061415
S         -2.71949       -1.25061       -0.22383
O         -4.00290       -1.94723       -0.14948
O         -2.28117       -0.58276        1.03331
O         -2.62844       -0.27483       -1.37143
H         -2.05946        1.05602       -0.80854
C         -1.46903       -2.48215       -0.57597
H         -1.49039       -3.21906        0.22848
H         -1.71684       -2.95527       -1.52703
H         -0.49977       -1.98202       -0.62592
S          1.41105        0.34131        0.96367
O          1.30475       -0.46446       -0.27517
O          0.75510        1.66507        0.87435
O          2.86134        0.47080        1.37251
H          3.74995        0.03733        0.28240
C          0.61432       -0.55292        2.27426
H         -0.43923       -0.67102        1.99682
H          1.10788       -1.52043        2.37267
H          0.72203        0.02845        3.19043
N         -1.69209        1.98065       -0.40647
C         -2.67872        2.49635        0.56305
C         -1.38205        2.90238       -1.51123
H         -0.81338        1.75513        0.09799
H         -3.61372        2.70778        0.04104
H         -2.84493        1.71599        1.30598
H         -2.29258        3.40520        1.02950
H         -2.29620        3.11639       -2.06777
H         -0.96048        3.82791       -1.11369
H         -0.65892        2.42297       -2.17143
N          4.35846       -0.30173       -0.56828
C          3.95383        0.48595       -1.75736
C          4.15275       -1.76088       -0.72828
H          5.33214       -0.10928       -0.33887
H          2.88965        0.30719       -1.91696
H          4.11744        1.54350       -1.54867
H          4.53661        0.17491       -2.62664
H          3.08407       -1.92169       -0.87467
H          4.72449       -2.12690       -1.58327
H          4.47587       -2.26194        0.18449
