34
2msa1a1eda_156.log	Energy: -988701.7872675
S         -0.57070        2.44563        0.04074
O         -0.48651        3.88857        0.09321
O         -1.99999        2.02856        0.54267
O          0.45205        1.67788        0.77102
H          0.60312        0.22639        1.79391
C         -0.53200        1.88474       -1.64877
H         -1.35744        2.35958       -2.17915
H          0.42501        2.20189       -2.06548
H         -0.62351        0.79515       -1.65875
S         -1.80921       -1.59591       -0.10908
O         -1.51150       -2.03931        1.27882
O         -0.60111       -1.51012       -0.95910
O         -2.61509       -0.33896       -0.14760
H         -2.21842        1.05359        0.33457
C         -2.87814       -2.83855       -0.80566
H         -2.34803       -3.79088       -0.78457
H         -3.78259       -2.88568       -0.19938
H         -3.11272       -2.54882       -1.82992
N          0.76512       -0.75206        2.08481
H         -0.13434       -1.27089        1.96495
H          1.09892       -0.79780        3.04200
H          1.46106       -1.18307        1.37731
H          2.77783       -0.72109       -1.83658
H          1.82120        0.23736       -0.69545
H          4.13708        1.01244       -0.67566
H          3.72302        0.29614        0.88440
H          5.31827       -1.01916       -1.19347
H          5.75697       -0.67187        0.34040
H          1.40134       -2.12487       -0.48604
H          2.98109       -2.35976       -0.00085
C          2.61983       -0.50573       -0.76911
C          3.89866        0.06437       -0.17194
N          2.20685       -1.70106       -0.02645
N          4.97056       -0.93062       -0.24379
