43
2msa1eda1tma_51.log	Energy: -1062690.1424444
S         -0.06748        2.64672       -0.28475
O         -1.27958        1.96584       -0.79892
O          1.17247        2.28192       -1.01518
O          0.09108        2.49490        1.19183
H          1.66669        1.39299        1.49867
C         -0.32090        4.39149       -0.57695
H         -0.44078        4.54166       -1.65010
H         -1.21930        4.70113       -0.04232
H          0.55168        4.93089       -0.20796
S          0.12695       -2.01763       -0.68238
O          1.13461       -3.07264       -0.84261
O          0.24211       -1.27446        0.61910
O         -1.29145       -2.46814       -0.83939
H         -2.15256       -1.42347        0.08612
C          0.39486       -0.81612       -1.97214
H          1.41541       -0.43921       -1.88839
H          0.24835       -1.32383       -2.92635
H         -0.31301        0.00497       -1.84272
H          4.15442        0.71545        1.45046
H          3.15702       -0.07372        2.68948
H          4.51841       -1.74798        1.41629
H          2.78051       -2.02201        1.27031
H          4.54836       -1.18961       -0.84557
H          3.12835       -2.04119       -0.88400
H          2.26803        0.96448        0.05151
H          1.36111       -0.12729        0.88778
C          3.32347        0.02399        1.61379
C          3.59186       -1.34526        0.98573
N          2.10986        0.60594        1.00294
N          3.61134       -1.24922       -0.46827
N         -2.92969       -0.91281        0.59194
C         -3.64462       -0.12021       -0.44047
H         -2.96059        0.64182       -0.81775
H         -3.95160       -0.79431       -1.24109
H         -4.51958        0.35017        0.01502
C         -3.77700       -1.98761        1.15516
H         -4.10508       -2.63810        0.34394
H         -3.18160       -2.56820        1.86009
H         -4.63816       -1.54440        1.66054
C         -2.35339       -0.04329        1.65036
H         -1.73697       -0.65974        2.30319
H         -1.73550        0.72330        1.18291
H         -3.17530        0.41604        2.20611
