28
2msa1dma_85.log	Energy: -918445.0106155
S          2.87543       -0.45246        0.11981
O          2.29215       -0.71800        1.41728
O          2.10078       -0.79699       -1.07535
O          4.28350       -1.24057       -0.01831
H          4.12300       -2.08992       -0.45639
C          3.47972        1.20746        0.03060
H          2.59584        1.84251        0.11736
H          4.16950        1.35854        0.86084
H          3.97169        1.34007       -0.93211
S         -0.82934        1.01870       -0.16581
O         -2.05326        1.68277       -0.56266
O          0.40308        1.79090       -0.02478
O         -0.57171       -0.13214       -1.25219
H          0.37867       -0.38586       -1.25107
C         -1.10817        0.09867        1.32462
H         -1.31950        0.83108        2.10569
H         -1.97345       -0.55589        1.15374
H         -0.19681       -0.45462        1.55874
N         -3.96601       -1.25199        0.44284
C         -3.86882       -1.39410       -1.00530
C         -4.77027       -0.10129        0.83465
H         -4.36154       -2.09676        0.84119
H         -3.37630       -0.50964       -1.41848
H         -3.25587       -2.26520       -1.25120
H         -4.85031       -1.50022       -1.49836
H         -4.26934        0.81161        0.49744
H         -5.78627       -0.11078        0.40460
H         -4.85568       -0.06306        1.92468
