43
2msa1eda1tma_208.log	Energy: -1062674.9348529
S         -2.56204       -0.13038       -0.59395
O         -3.98224        0.14797       -0.60107
O         -2.31333       -1.38656        0.31919
O         -1.65443        0.94600       -0.15416
H         -0.25008        0.92778        1.09487
C         -2.03024       -0.65902       -2.20262
H         -2.70947       -1.44595       -2.53082
H         -2.08983        0.20591       -2.86460
H         -1.00518       -1.02981       -2.11600
S          1.20688       -1.94119        0.15398
O          2.46360       -1.24083        0.47077
O          0.79517       -1.91852       -1.25643
O          0.09349       -1.45100        1.06319
H         -1.31999       -1.46625        0.58391
C          1.44092       -3.65324        0.60238
H          2.24079       -4.05217       -0.02194
H          1.71378       -3.70291        1.65655
H          0.50760       -4.18554        0.41701
H          0.68187        0.60257       -1.56347
H          0.62062        1.35384       -3.16053
H          2.85680        0.55260       -2.76185
H          2.89017        2.32842       -2.74421
H          3.01139        0.55229       -0.42395
H          4.07505        1.71464       -0.86355
H         -0.38735        2.64750       -1.23791
H          1.17137        2.98448       -0.81917
C          1.01869        1.47225       -2.14544
C          2.53954        1.44320       -2.20180
N          0.55794        2.74618       -1.59447
N          3.08835        1.48157       -0.84011
N          0.01161        1.39496        1.98198
C          1.49116        1.34763        2.13116
H          1.80527        0.30416        2.13988
H          1.95018        1.83665        1.26766
H          1.75874        1.85370        3.06150
C         -0.49378        2.78869        1.89542
H          0.02721        3.30350        1.08972
H         -1.56050        2.75821        1.67746
H         -0.30366        3.29023        2.84627
C         -0.68122        0.64106        3.05988
H         -1.75219        0.64809        2.85438
H         -0.31090       -0.38238        3.04540
H         -0.47299        1.12670        4.01541
