38
2msa2dma_193.log	Energy: -1003272.9619377
S          2.66655       -0.39091       -0.87345
O          3.64916       -0.18307       -1.92799
O          1.24503       -0.22041       -1.35258
O          2.87081        0.46811        0.34203
H          1.90223        1.63208        0.47563
C          2.79653       -2.06748       -0.28666
H          2.62031       -2.73154       -1.13358
H          3.80681       -2.20226        0.10053
H          2.05485       -2.22207        0.49957
S         -0.96094       -1.16206        1.12924
O         -1.08860        0.24594        1.52435
O          0.08290       -1.93864        1.78436
O         -0.81635       -1.25564       -0.43728
H          0.08322       -0.84838       -0.78424
C         -2.53888       -1.94684        1.32473
H         -2.77969       -1.89895        2.38731
H         -3.26210       -1.39225        0.71791
H         -2.44601       -2.98147        0.99499
N          1.34323        2.54399        0.63057
C          0.99193        2.63883        2.06852
C          0.17616        2.59634       -0.28560
H          1.99800        3.28655        0.38719
H          0.33427        1.80188        2.30523
H          1.90933        2.57179        2.65371
H          0.48635        3.58713        2.26085
H         -0.52384        1.82148        0.02472
H         -0.29302        3.57994       -0.21744
H          0.51973        2.39318       -1.29951
N         -3.55438        0.17926       -1.05998
C         -3.60154        1.51308       -0.48519
C         -4.29106        0.07421       -2.30849
H         -2.58852       -0.09844       -1.20833
H         -4.63606        1.75842       -0.22029
H         -3.00132        1.53540        0.42847
H         -3.23893        2.30072       -1.17161
H         -5.35889        0.22839       -2.11822
H         -3.97569        0.81124       -3.06791
H         -4.16519       -0.92710       -2.72855
