38
2msa2dma_231.log	Energy: -1003271.3554947
S          0.99332       -1.46745       -0.54149
O          1.03837       -0.47569       -1.62742
O          0.41248       -0.91706        0.72081
O          2.35355       -2.04700       -0.24796
H          3.24995       -1.00126        0.34319
C         -0.01909       -2.83361       -1.04679
H         -1.02574       -2.44249       -1.20748
H          0.40475       -3.24243       -1.96395
H         -0.00883       -3.57360       -0.24665
S         -3.12073       -0.18327        0.29254
O         -4.38325       -0.48733        0.93575
O         -2.65877       -1.00198       -0.82402
O         -1.99985       -0.19607        1.42712
H         -1.11995       -0.50515        1.06572
C         -3.12722        1.51973       -0.21685
H         -3.86809        1.60711       -1.01274
H         -3.42054        2.12109        0.64417
H         -2.12515        1.79158       -0.56960
N          0.08857        2.29544       -0.67358
C          0.33982        2.50152        0.73692
C          0.64527        3.33541       -1.51526
H          0.40213        1.37955       -0.98927
H         -0.19637        3.39342        1.08231
H         -0.02691        1.64491        1.30646
H          1.41043        2.65615        0.98119
H          0.14709        4.29029       -1.31045
H          1.73092        3.49327       -1.36322
H          0.48017        3.08731       -2.56646
N          3.77784       -0.15088        0.78102
C          3.14328        0.14564        2.08999
C          3.70297        0.96878       -0.19058
H          4.74963       -0.42315        0.91824
H          2.07305        0.26970        1.91992
H          3.29820       -0.70475        2.75377
H          3.58167        1.04928        2.51694
H          2.65191        1.16908       -0.39951
H          4.18674        1.85347        0.22664
H          4.18816        0.66252       -1.11683
