40
2msa1dma1eda_565.log	Energy: -1038004.2882569
S          3.77900       -0.23301       -0.26472
O          5.22369       -0.31289       -0.34120
O          3.06780        0.69142       -1.15266
O          3.39149        0.12089        1.22913
H          2.48430        0.60075        1.28408
C          3.08788       -1.85633       -0.48226
H          3.29434       -2.15482       -1.51097
H          3.58551       -2.52661        0.21867
H          2.01248       -1.82174       -0.28949
S         -1.25322       -1.24901        0.18547
O         -0.04491       -2.01937        0.48520
O         -1.40844       -0.84314       -1.23768
O         -1.37472       -0.01437        1.06946
H         -1.29753        1.23514        0.10812
C         -2.66528       -2.24892        0.60411
H         -2.62042       -3.14873       -0.01077
H         -2.58568       -2.50600        1.66078
H         -3.58127       -1.68459        0.40417
N         -5.21955        0.01264       -0.09789
C         -4.71848        0.27516       -1.43754
C         -4.72046        0.95253        0.89277
H         -6.23287        0.01834       -0.10062
H         -3.64476        0.05987       -1.47532
H         -5.20471       -0.39399       -2.15190
H         -4.88457        1.31706       -1.77031
H         -3.64539        0.79648        1.03359
H         -4.89129        2.01074        0.61902
H         -5.20458        0.76726        1.85519
H          0.32763        3.36662        0.90183
H          1.95973        2.98550        0.33739
H          0.66021        2.73919       -1.59478
H          0.91503        1.08397       -1.04073
H         -1.57366        2.67228       -0.80992
H         -1.31356        1.15298       -1.50013
H          1.28750        1.88199        2.45014
H          0.31566        0.87590        1.58752
C          0.97491        2.55429        0.53592
C          0.44219        2.03445       -0.79104
N          1.13900        1.48268        1.52795
N         -1.03634        1.81002       -0.75682
