32
2msa2ma_60.log	Energy: -953967.4212297
S         -2.34780       -0.24971        0.06841
O         -2.13556       -1.62396       -0.39802
O         -2.56693        0.77189       -0.96989
O         -1.22016        0.19877        0.99672
C         -3.79460       -0.26410        1.11194
H         -3.93756        0.73435        1.52504
H         -4.64446       -0.55074        0.49170
H         -3.63581       -0.99418        1.90566
S          1.60847       -1.42835       -0.17825
O          3.00609       -1.71061        0.09190
O          1.30170       -0.29763       -1.06275
O          0.90420       -1.19697        1.21586
H          0.01230       -0.70770        1.12284
C          0.80307       -2.87264       -0.82033
H         -0.26410       -2.65016       -0.90146
H          1.24680       -3.07967       -1.79476
H          0.98921       -3.69212       -0.12618
N         -0.00731        2.11548       -0.61264
H         -0.13090        1.57013       -1.46667
H         -0.39420        1.48744        0.12290
C         -0.74909        3.38937       -0.66279
H         -0.62548        3.90467        0.29001
H         -0.35474        4.01221       -1.46640
H         -1.80225        3.16898       -0.83563
H          1.03386        2.23812       -0.45270
N          2.76283        2.16052       -0.12488
H          2.93364        1.31478       -0.66624
C          2.96853        1.87479        1.30285
H          3.97563        1.51016        1.53223
H          2.77950        2.78136        1.88383
H          2.25644        1.10903        1.62025
H          3.42068        2.86389       -0.44491
