44
2msa2tma_67.log	Energy: -1052595.5161030
S          1.42829       -1.29928       -0.78178
O          0.54152       -0.73680       -1.80312
O          1.06171       -0.88432        0.61543
O          2.88207       -0.97983       -1.00120
H          3.26296        0.19683       -0.09502
C          1.29011       -3.07026       -0.83988
H          0.25234       -3.31649       -0.60404
H          1.55767       -3.39348       -1.84614
H          1.96975       -3.49184       -0.09945
S         -2.46149       -1.54708        0.55462
O         -3.69897       -1.49070        1.30664
O         -1.79621       -2.82896        0.33948
O         -1.44023       -0.56757        1.29785
H         -0.49453       -0.76329        1.02919
C         -2.69025       -0.75860       -1.02135
H         -3.43316       -1.34754       -1.56141
H         -3.03432        0.26617       -0.85323
H         -1.72988       -0.76293       -1.54184
N          3.51859        1.03432        0.53423
C          2.41054        2.01358        0.40665
H          2.27696        2.25606       -0.64851
H          1.49993        1.54771        0.78140
H          2.65190        2.91359        0.97732
C          3.62788        0.50899        1.91636
H          2.68487        0.01940        2.16066
H          4.43558       -0.22296        1.94920
H          3.83681        1.33114        2.60517
C          4.79894        1.57578        0.02928
H          5.55537        0.79153        0.06910
H          4.66229        1.89179       -1.00532
H          5.10729        2.42536        0.64343
N         -2.43071        2.53613       -0.45131
C         -1.02570        2.29410       -0.71454
H         -0.70639        1.38225       -0.20418
H         -0.85988        2.14695       -1.78561
H         -0.38702        3.13701       -0.37402
C         -2.91373        3.69732       -1.17287
H         -2.75488        3.56047       -2.24678
H         -3.98617        3.82431       -0.99878
H         -2.40215        4.63080       -0.86364
C         -2.69018        2.64357        0.97477
H         -3.76346        2.76424        1.14712
H         -2.36242        1.73067        1.47798
H         -2.16838        3.50927        1.43019
