35
2msa1a1tma_28.log	Energy: -978626.9657837
S         -0.70011        1.79740       -0.18971
O          0.13087        1.24784       -1.30217
O          0.02958        1.97830        1.07069
O         -1.95634        0.99298       -0.04003
C         -1.23935        3.40681       -0.73672
H         -0.35304        4.02892       -0.86314
H         -1.76713        3.29084       -1.68315
H         -1.89553        3.82321        0.02774
S          2.73999       -0.60490        0.13868
O          4.01611       -1.26053       -0.05974
O          1.52202       -1.41878        0.18569
O          2.58473        0.47704       -1.00471
H          1.62778        0.78688       -1.09431
C          2.79736        0.37462        1.62138
H          2.90036       -0.31853        2.45739
H          3.66602        1.02988        1.55602
H          1.86867        0.94671        1.68624
N         -3.20863       -0.35018        2.32699
H         -4.14276       -0.03753        2.57160
H         -2.79385        0.36037        1.72254
H         -2.66927       -0.36056        3.18714
N         -1.85687       -1.66430       -0.50280
C         -3.30728       -1.83110       -0.76094
H         -3.83430       -1.65674        0.17808
H         -3.61634       -1.09693       -1.50544
H         -3.49038       -2.84344       -1.12823
C         -1.04223       -1.81876       -1.73571
H         -1.35279       -1.05957       -2.45347
H          0.00520       -1.66835       -1.47510
H         -1.20135       -2.82105       -2.14025
C         -1.39567       -2.55864        0.59162
H         -0.34008       -2.36081        0.77531
H         -1.99693       -2.33383        1.47373
H         -1.53808       -3.59511        0.27582
H         -1.74842       -0.66527       -0.19698
