42
2msa2eda_119.log	Energy: -1072767.3359140
S         -2.99627        0.14069       -0.72909
O         -2.19019       -0.16116        0.50922
O         -2.82204       -0.91460       -1.73958
O         -2.72362        1.52173       -1.20186
C         -4.70423        0.11998       -0.21706
H         -4.93047       -0.87221        0.17369
H         -4.84348        0.88105        0.55070
H         -5.31636        0.33899       -1.09232
S          2.76445       -0.27958       -0.73363
O          2.97856       -1.59164       -0.10829
O          3.04594        0.89367        0.11907
O          1.37380       -0.18445       -1.33499
C          3.86719       -0.17107       -2.13293
H          3.64378       -0.99537       -2.81020
H          3.70938        0.78807       -2.62621
H          4.88748       -0.24760       -1.75602
H          1.63756        2.83874       -0.28941
H          0.18779        3.87436       -0.26173
H          1.56132        3.83611        1.89480
H         -0.15228        3.44722        2.11126
H          1.94342        1.39574        1.86599
H          1.07587        1.76444        3.23218
H          0.37866        1.11731       -0.76575
H         -0.37514        1.26739        0.67854
C          0.65314        2.98160        0.15833
C          0.78792        3.08570        1.67898
N         -0.16724        1.78954       -0.18531
N          1.05864        1.75960        2.22028
H         -1.07964        1.96739       -0.64864
H         -0.40173       -3.75408        0.91960
H          1.21451       -3.22066        0.33672
H          1.08307       -2.64355        2.63934
H          0.93990       -1.13885        1.73929
H         -0.70741       -1.59513        3.62740
H         -1.42176       -1.16425        2.22352
H         -0.79298       -2.63159       -1.11053
H         -1.17094       -1.48346        0.01329
C          0.24451       -2.89793        0.71610
C          0.41621       -2.07470        1.98547
N         -0.39518       -2.07741       -0.35400
N         -0.86033       -1.88618        2.66919
H          0.29943       -1.41665       -0.77494
