32
2msa1a1dma_92.log	Energy: -953957.2362866
S          1.71339        0.91717       -0.16804
O          1.07618        0.83290        1.15356
O          0.75576        0.64225       -1.29158
O          2.90345        0.01048       -0.29013
H          2.45647       -1.43137        0.08278
C          2.31322        2.56977       -0.41188
H          1.44779        3.23115       -0.30219
H          3.06022        2.77061        0.35660
H          2.75162        2.63144       -1.40792
S         -2.30417       -0.33907        0.03762
O         -2.54468        0.22422        1.35435
O         -1.50268       -1.56217       -0.05378
O         -1.72337        0.74685       -0.94350
H         -0.69161        0.69800       -1.04550
C         -3.87618       -0.62820       -0.74587
H         -4.41617       -1.34224       -0.12324
H         -4.41272        0.31925       -0.79287
H         -3.70293       -1.03164       -1.74287
N         -0.74354        3.34361        0.66783
H         -1.45711        2.92394        0.07893
H         -1.19456        4.06139        1.22509
H         -0.44193        2.60476        1.30021
N          2.05707       -2.41358        0.26519
C          1.29547       -2.81107       -0.94693
C          1.23763       -2.38351        1.50623
H          2.85341       -3.03579        0.39376
H          0.49078       -2.08922       -1.08698
H          1.97132       -2.79152       -1.80187
H          0.87702       -3.80862       -0.80402
H          0.39554       -1.71177        1.34234
H          0.87755       -3.39080        1.72218
H          1.85500       -2.00558        2.32054
