40
2msa1dma1eda_240.log	Energy: -1038021.5238838
S         -1.62999       -1.76028        0.48679
O         -2.75943       -0.92536        0.90975
O         -0.66651       -2.11860        1.55920
O         -0.88983       -1.17241       -0.69186
C         -2.29931       -3.30125       -0.11247
H         -2.81661       -3.78429        0.71693
H         -2.99481       -3.07687       -0.92134
H         -1.47700       -3.92299       -0.46697
S         -1.15494        2.28843       -0.45361
O         -0.94191        3.56060       -1.11183
O         -0.16940        1.85956        0.55371
O         -1.26212        1.18173       -1.56778
H         -1.17389        0.23389       -1.18949
C         -2.75199        2.26047        0.32084
H         -3.49183        2.51953       -0.43650
H         -2.91799        1.25453        0.71585
H         -2.73580        3.00625        1.11639
N          2.70466       -1.50048       -1.20658
C          2.25243       -0.48869       -2.16690
C          2.08631       -2.80680       -1.43664
H          3.71483       -1.58497       -1.25839
H          1.16818       -0.38117       -2.07618
H          2.70729        0.47259       -1.91764
H          2.48484       -0.75729       -3.20750
H          1.00665       -2.70229       -1.29524
H          2.27002       -3.19291       -2.45029
H          2.46550       -3.52923       -0.70880
H          1.46751        0.90551        2.64860
H          2.54204       -0.49126        2.81278
H          3.74064        1.68247        2.42598
H          4.15069        0.41619        1.26353
H          2.10412        2.43098        0.60894
H          3.67650        2.50890        0.12934
H          0.75308       -1.09375        1.36927
H          0.87580        0.31782        0.53602
C          2.18129        0.27004        2.11780
C          3.34882        1.09329        1.58227
N          1.43958       -0.39195        1.02509
N          2.94029        1.88077        0.42762
H          2.05575       -0.84687        0.29185
