35
2msa1ma1dma_51.log	Energy: -978628.9387927
S          1.08980       -1.82148        0.10251
O          1.26560       -1.25162       -1.26081
O         -0.34133       -2.15370        0.38180
O          1.70968       -0.99618        1.15887
C          1.94021       -3.38802        0.10223
H          1.50817       -4.01115       -0.68080
H          2.99682       -3.20118       -0.08981
H          1.80181       -3.84670        1.08140
S         -2.55100        0.27631       -0.13885
O         -3.75071        0.86044       -0.70218
O         -1.33001        1.08678       -0.09794
O         -2.26803       -1.06686       -0.91227
H         -1.45527       -1.52686       -0.51210
C         -2.86732       -0.28326        1.52283
H         -3.05769        0.59888        2.13527
H         -3.74244       -0.93267        1.50140
H         -1.98388       -0.82459        1.86657
N          0.95824        1.85715        1.53993
H         -0.04149        2.02069        1.61145
C          1.72528        2.68398        2.46941
H          1.48265        2.50326        3.52438
H          2.79174        2.48601        2.33116
H          1.55044        3.74196        2.25496
H          1.10859        0.86094        1.71434
N          1.47389        1.47799       -1.13801
C          2.94470        1.51949       -1.23014
C          0.76410        2.34136       -2.09850
H          1.18821        0.48179       -1.25342
H          3.29317        2.53634       -1.03749
H          3.34679        0.83646       -0.48070
H          3.26235        1.19852       -2.22371
H          1.05413        3.38090       -1.93188
H          1.02176        2.04685       -3.11781
H         -0.30568        2.22190       -1.93010
H          1.21068        1.73332       -0.12980
