32
2msa2ma_75.log	Energy: -953964.6076592
S          0.93527        1.62324        0.17437
O          2.24940        1.42843        0.80155
O         -0.19428        1.59290        1.15089
O          0.68395        0.66016       -0.94678
C          0.91611        3.24808       -0.55850
H          1.08281        3.97458        0.23701
H          1.71372        3.29746       -1.29983
H         -0.05696        3.40553       -1.02425
S         -2.73962       -0.61303       -0.12740
O         -4.13464       -0.98847       -0.04440
O         -1.72455       -1.57999        0.30497
O         -2.56731        0.73047        0.67684
H         -1.60235        1.00798        0.83544
C         -2.35251       -0.14055       -1.79982
H         -2.45792       -1.03288       -2.41848
H         -3.06892        0.62155       -2.10671
H         -1.32668        0.23613       -1.81684
N          1.00470       -1.78018        0.33188
H          0.87129       -0.88522       -0.19460
H          0.17830       -2.34037        0.11837
C          1.07383       -1.50872        1.78887
H          1.25154       -2.44531        2.31809
H          1.87990       -0.79755        1.96942
H          0.12913       -1.06831        2.10360
H          1.90234       -2.20817       -0.00397
N          3.65796       -2.33659       -0.47348
H          4.25102       -2.48638        0.33741
C          3.90402       -0.99673       -1.03967
H          4.94788       -0.83477       -1.33167
H          3.26799       -0.85864       -1.91714
H          3.61467       -0.23425       -0.31156
H          3.90397       -3.05783       -1.14444
