32
2msa1a1dma_100.log	Energy: -953955.4533440
S         -2.58358        0.86469       -0.17975
O         -2.81606       -0.08984        0.92384
O         -2.92757        0.40706       -1.51269
O         -1.12373        1.41691       -0.10352
H         -0.38881        0.75667       -0.43706
C         -3.47715        2.34498        0.21958
H         -4.53456        2.07999        0.24005
H         -3.14478        2.69917        1.19481
H         -3.27729        3.08178       -0.55784
S          1.00789       -1.42322       -0.31237
O          0.73642       -0.06283       -0.88531
O          0.13561       -2.46754       -0.90903
O          0.92999       -1.42392        1.17409
H         -0.69125       -2.20239        1.66038
C          2.68512       -1.78353       -0.76568
H          2.73120       -1.83755       -1.85372
H          3.30957       -0.96764       -0.38794
H          2.94924       -2.74193       -0.31852
N         -1.57006       -2.50862        1.20059
H         -1.23137       -2.78388        0.25553
H         -2.17562       -1.66439        1.10207
H         -2.03727       -3.26414        1.69117
N          3.31936        1.37380        0.08657
C          4.13248        2.47288       -0.40208
C          2.95934        1.51395        1.48903
H          2.47049        1.29041       -0.46579
H          5.09976        2.47095        0.11303
H          4.32241        2.34548       -1.47151
H          3.67268        3.46552       -0.24594
H          3.86247        1.44412        2.10645
H          2.46852        2.47666        1.71893
H          2.28447        0.70311        1.77562
