31
2msa1tma_32.log	Energy: -943113.7719910
S          0.32088        1.45657        0.02925
O          0.22588        0.39029        1.04316
O         -0.66272        2.52352        0.12852
O          0.27083        0.79071       -1.41109
H         -0.54175        0.21631       -1.45752
C          1.96917        2.08103        0.00728
H          2.12264        2.57643        0.96693
H          2.63686        1.21438       -0.11693
H          2.04551        2.79468       -0.81316
S         -2.87768       -0.80500       -0.07010
O         -3.87643       -1.84289       -0.12564
O         -1.92948       -0.67755       -1.18726
O         -2.05186       -1.00954        1.27081
H         -1.19049       -0.51361        1.23925
C         -3.65366        0.77766        0.16278
H         -4.25479        0.96914       -0.72706
H         -4.28469        0.71490        1.04919
H         -2.87725        1.53786        0.27497
N          3.44355       -0.78224       -0.02660
C          2.49092       -1.73847       -0.57378
H          1.52300       -1.61235       -0.08306
H          2.35746       -1.55832       -1.64394
H          2.82283       -2.78358       -0.43222
C          4.73733       -0.89794       -0.67827
H          4.62360       -0.73873       -1.75456
H          5.42146       -0.13731       -0.28915
H          5.20163       -1.88989       -0.52329
C          3.55977       -0.93059        1.41610
H          4.24946       -0.17751        1.81112
H          2.58016       -0.78012        1.87860
H          3.93715       -1.92802        1.70792
