22
2msa1a_20.log	Energy: -869136.7870660
S         -1.49963       -0.56097        0.06860
O         -1.00182        0.18530       -1.10035
O         -1.35669        0.10046        1.35760
O         -0.79682       -1.98399        0.09616
H          0.18834       -1.84126        0.10365
C         -3.17262       -1.04333       -0.21787
H         -3.73088       -0.10082       -0.25223
H         -3.21509       -1.57883       -1.16572
H         -3.48673       -1.67299        0.61446
S          2.36030        0.10845       -0.06869
O          3.77002        0.20772       -0.35237
O          1.75723       -1.22419        0.07456
O          1.58854        0.89281       -1.21526
H          0.62662        0.64417       -1.23327
C          1.96691        1.03736        1.39594
H          2.49364        0.56109        2.22398
H          2.31947        2.05831        1.25066
H          0.88714        0.99895        1.55573
N         -3.47440        2.17844       -0.11592
H         -3.03426        2.28739        0.79243
H         -4.18476        2.89597       -0.20833
H         -2.76278        2.34990       -0.81954
