37
2msa1ma1eda_235.log	Energy: -1013361.6654432
S          1.86017       -1.13400       -0.79063
O          3.04477       -0.38068       -0.34192
O          1.36091       -0.80072       -2.12722
O          0.75865       -1.01289        0.25923
C          2.29418       -2.86470       -0.78230
H          3.09251       -3.00756       -1.51107
H          2.63179       -3.13164        0.21912
H          1.41195       -3.44008       -1.06486
S         -2.56975       -0.55780        0.42596
O         -3.12234        0.05309       -0.77814
O         -1.89461        0.32603        1.37561
O         -1.62497       -1.75553        0.05337
H         -0.62528       -1.47882        0.08711
C         -3.87460       -1.43172        1.25669
H         -4.62538       -0.69224        1.53634
H         -4.29214       -2.16113        0.56283
H         -3.45834       -1.91765        2.13834
N          2.77601        1.60187        1.87715
H          3.20022        1.06783        1.11580
C          2.40616        0.67181        2.95184
H          3.26370        0.14064        3.38260
H          1.89541        1.21483        3.75216
H          1.71485       -0.07130        2.54507
H          3.45494        2.28123        2.20305
H          0.97127        3.37193       -0.90726
H          1.59344        1.76468       -1.37421
H         -0.31744        2.46965       -2.84834
H         -0.67972        1.01024       -1.94181
H         -1.93694        3.57907       -1.64064
H         -2.46056        2.08331       -1.17327
H          1.25417        2.00611        1.04456
H         -0.44872        2.20676        0.69550
C          0.73066        2.30794       -0.98463
C         -0.51275        2.08719       -1.84007
N          0.44885        1.81781        0.38655
N         -1.66489        2.71305       -1.19424
H          0.35264        0.78621        0.39069
