37
2msa1ma1eda_366.log	Energy: -1013352.7943544
S         -0.99213       -1.57958        0.19152
O         -1.89067       -2.67444       -0.15929
O         -1.02930       -0.45298       -0.82842
O          0.43167       -1.98102        0.39744
H          1.43123       -1.05365       -0.50909
C         -1.54964       -0.85681        1.72029
H         -2.58619       -0.54085        1.56701
H         -1.49242       -1.63335        2.48402
H         -0.89356       -0.02016        1.96839
S          0.34868        2.39224        0.06408
O          1.27556        2.19583       -1.06506
O          0.78042        1.80569        1.33218
O         -1.07973        1.92397       -0.31459
H         -1.09750        0.85712       -0.52155
C          0.08049        4.13361        0.26780
H          1.03981        4.57694        0.53540
H         -0.28590        4.53772       -0.67537
H         -0.64853        4.27364        1.06551
N         -4.50980       -1.00257        0.15672
H         -3.99090       -1.86395        0.00201
C         -4.51626       -0.20000       -1.06527
H         -5.03219       -0.66869       -1.91701
H         -4.99095        0.76642       -0.86846
H         -3.48224       -0.01194       -1.36424
H         -5.45343       -1.25355        0.42973
H          3.94254        0.44467       -0.05308
H          2.65522        0.08040        1.11526
H          4.56819       -1.55817        1.32758
H          3.06185       -2.34945        0.84303
H          5.35770       -1.81901       -0.88584
H          4.44687       -3.17321       -0.75595
H          1.86199        0.45672       -1.16803
H          2.69877       -0.95745       -1.62214
C          3.20010       -0.29887        0.24941
C          3.84101       -1.65659        0.51181
N          2.23014       -0.45842       -0.86049
N          4.41493       -2.16147       -0.73753
