43
2msa1eda1tma_110.log	Energy: -1062681.0793314
S          0.37951        2.36282        0.29425
O          0.63732        1.66883       -0.96658
O          1.51433        2.94227        0.99261
O         -0.33179        1.37969        1.30355
C         -0.86072        3.60539        0.00524
H         -0.45404        4.30781       -0.72288
H         -1.74937        3.10598       -0.38417
H         -1.07012        4.10196        0.95240
S         -2.83667       -0.51598       -0.34837
O         -2.77097       -1.72444        0.49641
O         -1.96825       -0.58170       -1.54555
O         -2.60315        0.74720        0.43743
H         -1.26261        1.07655        0.96194
C         -4.51490       -0.36782       -0.93026
H         -4.74635       -1.26343       -1.50723
H         -5.17014       -0.28771       -0.06292
H         -4.58424        0.52253       -1.55502
H         -0.74174       -2.73141       -0.71047
H          0.96144       -3.07323       -1.10569
H          0.11766       -4.15682        1.05119
H          1.55540       -3.14826        1.27479
H         -1.18352       -2.19926        1.80732
H          0.03333       -2.42225        2.91878
H         -0.06647       -0.63955       -1.06603
H          0.30016       -0.78314        0.54442
C          0.29215       -2.58599       -0.39346
C          0.48684       -3.12183        1.02673
N          0.54999       -1.12662       -0.39933
N         -0.17391       -2.21348        1.95123
H          1.57014       -0.88701       -0.55956
N          3.30233       -0.61449       -0.51246
C          3.49019       -0.06875        0.83210
H          2.95011        0.87583        0.93093
H          3.09793       -0.77359        1.57283
H          4.55520        0.11267        1.05147
C          4.03010       -1.86744       -0.67326
H          3.68967       -2.59223        0.07334
H          3.84508       -2.28128       -1.66883
H          5.11801       -1.73311       -0.54928
C          3.68506        0.35996       -1.53319
H          3.50636       -0.06295       -2.52589
H          3.07087        1.25578       -1.42399
H          4.75055        0.63285       -1.45392
