35
2msa1ma1dma_140.log	Energy: -978622.6845878
S         -0.99852        1.81621        0.07283
O         -2.28318        1.51249        0.76864
O         -0.92570        1.17890       -1.25893
O          0.18963        1.51150        0.92225
H          0.90421        0.13906        1.04575
C         -0.96355        3.58124       -0.15607
H         -1.81764        3.85955       -0.77355
H         -1.02304        4.05300        0.82452
H         -0.02728        3.83633       -0.65277
S          1.22942       -1.77086        0.02010
O          2.17250       -2.84355        0.24762
O          1.48378       -0.68882        1.14258
O         -0.20313       -2.12436        0.01409
H         -1.72611       -1.39004        0.00477
C          1.59553       -0.92109       -1.49252
H          2.61259       -0.52338       -1.39565
H          1.52268       -1.66156       -2.29060
H          0.85514       -0.12654       -1.62134
N          4.17351        0.48496       -0.09278
H          3.91281       -0.08141        0.70882
C          3.66208        1.84645        0.05809
H          4.05613        2.38818        0.93027
H          3.90260        2.42358       -0.84018
H          2.57307        1.81283        0.15211
H          5.18539        0.47859       -0.15334
N         -2.71367       -1.06446        0.05769
C         -3.43938       -1.90397        1.03092
C         -3.28434       -1.05508       -1.30605
H         -2.65353       -0.07234        0.40226
H         -3.44057       -2.93905        0.68633
H         -2.93083       -1.83989        1.99265
H         -4.46313       -1.53969        1.12938
H         -3.26216       -2.06679       -1.71416
H         -4.31178       -0.69027       -1.26094
H         -2.67503       -0.38387       -1.91195
