41
2msa1dma1tma_82.log	Energy: -1027941.6827573
S          2.24988        1.74649       -0.08840
O          3.42387        2.59930       -0.29075
O          2.20506        1.03850        1.21989
O          2.03422        0.75524       -1.20575
H          2.22036       -0.67026       -0.61933
C          0.80563        2.79763       -0.14300
H          0.86929        3.50031        0.68905
H          0.81902        3.33243       -1.09357
H         -0.08181        2.16545       -0.07176
S         -1.54977       -0.70608        0.71797
O         -0.73869       -1.79280        0.14937
O         -2.90698       -1.15457        1.17523
O         -1.69106        0.47859       -0.19556
H         -3.30197        0.64640       -0.64715
C         -0.69921       -0.10795        2.16207
H         -0.61179       -0.93788        2.86486
H          0.28728        0.26155        1.86011
H         -1.29263        0.69559        2.59938
N         -4.28922        0.28262       -0.57366
C         -4.64684       -0.44163       -1.80837
C         -5.23275        1.33580       -0.16131
H         -4.10505       -0.40084        0.20356
H         -4.69549        0.26213       -2.64075
H         -3.87574       -1.18809       -2.00079
H         -5.61302       -0.93165       -1.67775
H         -5.30230        2.09147       -0.94543
H         -6.21585        0.89663        0.01603
H         -4.86281        1.79289        0.75653
N          2.62725       -1.64687       -0.42040
C          2.02100       -2.56120       -1.41366
H          0.94546       -2.58824       -1.23504
H          2.22138       -2.16852       -2.41149
H          2.45797       -3.55761       -1.30492
C          4.08282       -1.47019       -0.62824
H          4.24751       -1.07569       -1.63089
H          4.44704       -0.74394        0.09948
H          4.58904       -2.43059       -0.50065
C          2.32409       -2.05419        0.97199
H          2.65653       -1.25477        1.63438
H          1.24550       -2.18487        1.05903
H          2.84435       -2.99239        1.18611
