35
2msa1ma1dma_168.log	Energy: -978621.1740847
S          1.36759        1.34678       -0.43753
O          0.78019        2.67700       -0.66063
O          0.93264        0.43047       -1.62667
O          1.02846        0.72671        0.84034
H         -1.85816        0.94094       -0.00732
C          3.12523        1.42219       -0.62036
H          3.47508        0.39050       -0.48757
H          3.34863        1.81055       -1.61401
H          3.50679        2.08738        0.15505
S         -1.35443       -1.71229       -0.17709
O         -2.13374       -0.51213       -0.61843
O         -1.27542       -1.86747        1.27411
O         -0.02011       -1.75393       -0.87426
H          0.54500       -0.48467       -1.30890
C         -2.23681       -3.11330       -0.83752
H         -3.22048       -3.14129       -0.36847
H         -2.32241       -2.99146       -1.91696
H         -1.67009       -4.01146       -0.59111
N          2.95687       -1.75649        0.20718
H          1.95978       -1.88158        0.04186
C          3.21464       -1.67730        1.64461
H          2.90624       -2.56750        2.21160
H          4.28402       -1.51671        1.81782
H          2.67305       -0.81807        2.04740
H          3.42101       -2.56442       -0.19427
N         -1.81196        1.89726        0.44922
C         -1.79596        1.67953        1.91426
C         -2.94379        2.70826       -0.04166
H         -0.92242        2.32598        0.14393
H         -2.71390        1.16368        2.19792
H         -0.93531        1.05417        2.14898
H         -1.72496        2.64227        2.42328
H         -3.87605        2.19231        0.19087
H         -2.92842        3.68799        0.43867
H         -2.84832        2.82267       -1.12132
