37
2msa1ma1eda_350.log	Energy: -1013356.7228523
S          0.78167        1.91430        0.27554
O          2.24142        1.79431        0.32231
O          0.09690        1.12102        1.34692
O          0.19877        1.59046       -1.06485
C          0.36344        3.61862        0.58909
H          0.75547        3.88069        1.57193
H          0.82753        4.22907       -0.18572
H         -0.72170        3.72209        0.56749
S         -2.60930       -0.62860       -0.28591
O         -3.82071       -1.39116       -0.07259
O         -1.44972       -1.29340       -0.88443
O         -2.20614       -0.00200        1.10525
H         -1.28009        0.40963        1.12440
C         -2.98312        0.80319       -1.27700
H         -3.31646        0.44237       -2.25116
H         -3.78262        1.35532       -0.78286
H         -2.07049        1.39654       -1.36833
N          1.51523       -1.39046        2.40077
H          1.96990       -1.40259        3.30753
C          0.26071       -2.14786        2.44329
H         -0.47277       -1.76304        3.16364
H         -0.20226       -2.12703        1.45317
H          0.47075       -3.19369        2.68690
H          1.30796       -0.41679        2.18352
H          2.68177       -1.63750       -2.92430
H          2.73992        0.11430       -2.58414
H          4.24801       -1.32029       -1.05607
H          3.09488       -0.28259       -0.20897
H          3.01652       -3.16947       -0.34215
H          2.36185       -2.11550        0.78972
H          0.42588       -1.14838       -2.68444
H          0.88768       -1.60760       -1.15652
C          2.46926       -0.86343       -2.18235
C          3.18267       -1.16311       -0.85285
N          1.01346       -0.88866       -1.89649
N          2.52828       -2.29344       -0.21033
H          0.65968        0.03279       -1.53728
