37
2msa1ma1eda_377.log	Energy: -1013354.9001632
S         -2.64561       -0.49218       -0.00135
O         -2.15296       -1.51836       -0.91717
O         -2.96642        0.82814       -0.52204
O         -1.65920       -0.37845        1.22102
H         -1.04573        0.48979        1.19987
C         -4.08481       -1.14948        0.81677
H         -4.84143       -1.31195        0.04840
H         -3.81502       -2.09090        1.29478
H         -4.42755       -0.42013        1.55003
S          0.45043        2.02785       -0.04189
O          1.85262        2.44169        0.09708
O         -0.14326        1.56032        1.25870
O          0.21893        1.02476       -1.12010
H          1.06102       -0.31139       -1.36039
C         -0.51775        3.44383       -0.51427
H         -0.43950        4.18832        0.27819
H         -0.11877        3.83191       -1.45168
H         -1.54622        3.10078       -0.63746
N          3.41792       -0.19270        0.35441
H          3.21556        0.80586        0.27151
C          4.80883       -0.42759        0.73788
H          5.09256        0.06868        1.67450
H          4.98167       -1.50159        0.85604
H          5.47443       -0.06824       -0.05147
H          2.76904       -0.53928        1.06372
H          2.33839       -3.22866        0.20296
H          0.69552       -3.88148        0.23361
H          1.31591       -3.16390       -2.00900
H         -0.07985       -2.24572       -1.39967
H          2.53300       -0.92994       -0.89670
H          1.99067       -1.06859       -2.51201
H          0.03909       -1.60330        1.08248
H          1.11681       -2.33263        2.07194
C          1.27832       -2.95365        0.12649
C          0.99130       -2.42503       -1.27276
N          0.99583       -1.94846        1.14147
N          1.69486       -1.13763       -1.54193
