25
2msa1ma_64.log	Energy: -893790.2200794
S         -2.75379       -0.42080        0.07695
O         -3.01092       -1.08166        1.33671
O         -1.66101       -0.93041       -0.76664
O         -2.54154        1.13593        0.28459
H         -1.56983        1.37315        0.25889
C         -4.23561       -0.40061       -0.89843
H         -4.50245       -1.44114       -1.08556
H         -5.01370        0.09743       -0.32000
H         -4.03380        0.12667       -1.82983
S          1.19499        0.82919        0.15281
O          1.59456        0.36767        1.46629
O          0.01904        1.71557        0.07178
O          0.94676       -0.39905       -0.82779
H         -0.01042       -0.66832       -0.79638
C          2.55624        1.60047       -0.66607
H          2.80577        2.48579       -0.07934
H          3.38827        0.88118       -0.66530
H          2.24204        1.87415       -1.67271
N          4.78977       -0.76134       -0.19471
H          5.49430       -0.99868       -0.88517
C          3.93052       -1.91630        0.08694
H          4.47224       -2.80787        0.43200
H          3.19888       -1.63682        0.84809
H          3.37397       -2.17726       -0.81663
H          5.28523       -0.47882        0.64465
