29
2msa1a1ma_06.log	Energy: -929315.8731919
S          2.16845       -0.42236        0.23307
O          1.94050        0.03078       -1.16101
O          1.40130       -1.65987        0.55011
O          1.95251        0.66416        1.22982
H          0.89897        1.85657        0.69841
C          3.89079       -0.86124        0.37657
H          4.48715        0.02545        0.16112
H          4.06800       -1.20826        1.39457
H          4.10269       -1.65227       -0.34296
S         -2.52126       -0.15206        0.13307
O         -3.75005        0.60490        0.33989
O         -1.46180        0.59765       -0.64070
O         -2.68851       -1.50110       -0.48463
H         -1.29434       -1.85842       -1.24959
C         -1.78316       -0.44680        1.73750
H         -1.65374        0.51336        2.24003
H         -2.46546       -1.07512        2.31098
H         -0.81768       -0.93931        1.60027
N         -0.29117       -1.87278       -1.59474
H          0.34697       -2.02994       -0.78254
H         -0.06196       -0.92776       -1.91514
H         -0.13754       -2.55507       -2.33000
N          0.19564        2.44613        0.18728
H         -0.56547        1.76097       -0.11255
C          0.81766        3.07461       -1.00012
H          0.04927        3.57548       -1.58905
H          1.57656        3.79033       -0.68271
H          1.28226        2.27615       -1.57885
H         -0.20525        3.13366        0.82031
