40
2msa1dma1eda_442.log	Energy: -1038011.0921601
S          1.15452       -1.21873        0.47101
O          1.43495        0.11571        1.02342
O          0.85567       -1.24698       -0.96052
O          0.00482       -1.90464        1.28355
H         -0.88362       -1.37458        1.13515
C          2.51254       -2.29089        0.83984
H          3.38989       -1.82749        0.37593
H          2.62362       -2.34015        1.92290
H          2.29770       -3.27216        0.41767
S         -2.89296       -0.63948       -0.38539
O         -4.31433       -0.49836       -0.10425
O         -2.03453       -0.53443        0.86196
O         -2.36467        0.29903       -1.42062
H         -1.01384        1.06342       -0.99733
C         -2.59364       -2.27802       -1.02285
H         -2.92737       -3.00080       -0.27768
H         -3.17133       -2.38140       -1.94166
H         -1.52614       -2.38016       -1.22541
N          4.26586        0.32240       -0.27129
C          3.83265        0.61897       -1.62736
C          5.55762        0.90549        0.05106
H          3.56122        0.64737        0.38470
H          4.53829        0.17986       -2.34085
H          2.85376        0.16510       -1.80759
H          3.77513        1.70195       -1.84328
H          6.33406        0.43845       -0.56454
H          5.60522        1.99547       -0.11993
H          5.79846        0.71059        1.09947
H         -0.06545        3.75753       -0.14059
H         -1.26465        3.42126       -1.42393
H         -2.28231        3.99182        0.83465
H         -2.81152        2.44348        0.17584
H         -1.67182        2.78549        2.63843
H         -1.73052        1.34850        1.83307
H          0.49841        1.72836       -1.34311
H          0.12306        1.38312        0.22510
C         -0.85976        3.08235       -0.46756
C         -1.95192        2.97587        0.59932
N         -0.26195        1.73746       -0.66654
N         -1.41469        2.31456        1.78211
