34
2msa1a1eda_275.log	Energy: -988695.4517248
S          0.23390        1.90912        0.10427
O          0.23919        1.03705        1.29403
O         -0.04077        1.14277       -1.15777
O          1.49286        2.70144       -0.02888
H          2.77112        1.69129        0.00118
C         -1.09287        3.07793        0.27569
H         -2.02160        2.50565        0.32382
H         -0.92530        3.64105        1.19388
H         -1.08102        3.73470       -0.59415
S         -2.76709       -0.88919       -0.03517
O         -3.71234       -1.92529       -0.39848
O         -3.21004        0.49212        0.10858
O         -1.59061       -0.94493       -1.10782
H         -1.06666       -0.08501       -1.11201
C         -1.93773       -1.36347        1.46824
H         -2.68880       -1.36296        2.25926
H         -1.53104       -2.36561        1.32942
H         -1.15441       -0.62835        1.66801
N          3.49680        0.92858       -0.13381
H          3.64604        0.37018        0.71399
H          4.37411        1.32234       -0.46007
H          3.09595        0.21912       -0.82427
H          2.83967       -3.45120       -0.26945
H          2.19218       -3.03761        1.31372
H          0.65962       -2.31886       -0.43491
H          1.25037       -0.94861        0.50006
H          2.21924       -1.67882       -2.17599
H          1.29656       -0.38973       -1.74595
H          4.30128       -2.31688        1.54646
H          4.50065       -1.89454       -0.00556
C          2.61698       -2.60809        0.40171
C          1.55128       -1.71593       -0.22037
N          3.83910       -1.86573        0.76451
N          2.03565       -1.01897       -1.42528
