30
2msa1eda_128.log	Energy: -953193.1804560
S         -1.87700       -1.30861       -0.03803
O         -1.30215       -1.59890       -1.35826
O         -2.58058        0.02415        0.01680
O         -0.91058       -1.41142        1.08762
C         -3.15421       -2.52022        0.25570
H         -3.89754       -2.42768       -0.53639
H         -2.69001       -3.50644        0.23137
H         -3.60141       -2.32788        1.23092
S          2.67653       -0.24920       -0.15934
O          3.72786        0.01278       -1.12484
O          1.77125        0.83099        0.21592
O          3.39726       -0.72182        1.21882
H          4.35028       -0.76614        1.05509
C          1.74313       -1.68529       -0.58732
H          1.12445       -1.43359       -1.45159
H          2.44827       -2.48492       -0.81333
H          1.07878       -1.92207        0.24772
H         -1.54834        3.42810        1.38956
H          0.23097        3.34562        1.35615
H         -0.50219        4.18415       -0.78666
H          0.12727        2.56431       -1.02816
H         -2.13141        1.75665       -1.22989
H         -2.73271        3.26570       -0.95100
H         -0.82117        1.32516        2.27843
H         -1.56910        0.98849        0.81527
C         -0.68784        2.93621        0.92728
C         -0.70850        3.12522       -0.59636
N         -0.75138        1.49261        1.27680
N         -1.92550        2.75111       -1.28302
H          0.09954        1.00767        0.94957
