40
2msa1dma1eda_202.log	Energy: -1038024.3029350
S         -0.52306       -2.18687       -0.38169
O          0.95800       -2.05230       -0.26512
O         -1.08679       -1.55270       -1.58289
O         -1.19093       -1.75158        0.88695
H         -2.08453       -0.49103        0.95293
C         -0.83844       -3.93690       -0.51071
H         -0.33643       -4.30419       -1.40596
H         -0.44703       -4.42497        0.38168
H         -1.91633       -4.07941       -0.58901
S         -1.99380        1.59041        0.34679
O         -2.62192        2.78465        0.87176
O         -2.65642        0.34643        1.05109
O         -0.53200        1.46242        0.46542
H          2.05813        0.74129        0.96200
C         -2.41467        1.38393       -1.36644
H         -1.90216        2.17063       -1.92225
H         -2.06723        0.39667       -1.68130
H         -3.49664        1.47887       -1.45754
N          1.94066       -0.19827        1.44144
C          1.15170       -0.05015        2.68188
C          3.27632       -0.78890        1.64422
H          1.42695       -0.82089        0.77198
H          1.70911        0.56804        3.38880
H          0.20722        0.42617        2.42603
H          0.96542       -1.03641        3.10892
H          3.86797       -0.14290        2.29590
H          3.17094       -1.77700        2.09458
H          3.76673       -0.88630        0.67495
H          2.67043       -0.12538       -1.34296
H          2.89493        0.63679       -2.91895
H          3.98555        1.93558       -1.15511
H          2.70890        2.86931       -1.96537
H          2.71570        3.01518        0.49552
H          1.29750        2.44562       -0.06740
H          0.63011        0.00233       -2.68674
H          0.44901        0.80960       -1.31228
C          2.38492        0.74782       -1.95603
C          2.90259        2.02041       -1.29675
N          0.95115        0.83174       -2.19665
N          2.28840        2.22126        0.02883
