34
2msa1a1eda_345.log	Energy: -988686.6763688
S          1.57766        1.63510       -0.20263
O          2.95780        1.82253       -0.59027
O          0.86391        0.49966       -0.83313
O          0.78608        2.95234       -0.48480
H         -0.25553        2.89053       -0.27910
C          1.45620        1.42864        1.55629
H          1.95757        0.49373        1.82139
H          1.92628        2.29383        2.02357
H          0.39948        1.34221        1.81497
S         -2.33508       -0.49920        0.13154
O         -3.72315       -0.08000        0.10857
O         -1.49173       -0.08133        1.25262
O         -1.67742        0.05272       -1.21184
H         -0.69550        0.20741       -1.08156
C         -2.21741       -2.25746       -0.05287
H         -2.57199       -2.70142        0.87831
H         -2.85891       -2.54589       -0.88605
H         -1.16696       -2.50189       -0.26095
N         -1.74022        2.87821        0.01801
H         -2.24537        2.44137       -0.75037
H         -2.11844        3.81103        0.15380
H         -1.95225        2.32720        0.84836
H          2.85059       -1.30392        0.09389
H          3.29563       -2.68745        1.07740
H          2.80671       -3.40462       -1.18085
H          1.59294       -4.08405       -0.08378
H          1.10516       -1.60560       -1.58077
H          0.61215       -3.08159       -2.09160
H          0.65390       -1.39811        1.13006
H          1.16193       -2.60218        2.11388
C          2.45245       -2.21122        0.56565
C          1.95206       -3.14938       -0.53425
N          1.47579       -1.80613        1.56845
N          0.84125       -2.53720       -1.26665
