34
2msa1a1eda_124.log	Energy: -988701.6870793
S          0.94915        1.92664       -0.09317
O         -0.49564        2.08824        0.28228
O          1.14252        1.44348       -1.46744
O          1.67596        1.11088        0.92174
C          1.62625        3.57059        0.02257
H          1.46491        3.93816        1.03577
H          2.69082        3.51220       -0.20462
H          1.10936        4.19825       -0.70343
S         -2.60524       -0.58067       -0.14702
O         -2.87004       -0.55693        1.28579
O         -1.52146       -1.46973       -0.59424
O         -2.40511        0.85411       -0.72338
H         -1.57676        1.35543       -0.32181
C         -4.08130       -1.04076       -1.01896
H         -4.87654       -0.35677       -0.72432
H         -3.88316       -0.97959       -2.08843
H         -4.31808       -2.06313       -0.72338
N         -0.04952       -0.81661        2.74533
H          0.35354        0.11152        2.63308
H          0.02314       -1.06689        3.72555
H         -1.04056       -0.73698        2.52343
H          1.53447       -2.63466       -1.51701
H          1.57307       -0.86021       -1.71672
H          3.89012       -1.78261       -1.77673
H          3.63904       -0.72232       -0.38549
H          3.79364       -3.64459       -0.29938
H          4.56544       -2.54501        0.63383
H          0.13985       -1.59236        0.11403
H          1.48810       -2.19719        0.91213
C          1.86617       -1.69196       -1.07285
C          3.36642       -1.69082       -0.81618
N          1.16463       -1.52042        0.21849
N          3.69820       -2.73995        0.14903
H          1.35867       -0.57259        0.61118
