30
2msa1eda_47.log	Energy: -953204.7453865
S         -1.64631       -1.43308        0.08308
O         -2.42989       -0.43554       -0.70166
O         -1.58321       -1.15217        1.51909
O         -0.28831       -1.59764       -0.55027
C         -2.46301       -2.99927       -0.14663
H         -3.46704       -2.91469        0.26981
H         -2.50179       -3.21436       -1.21423
H         -1.88972       -3.75893        0.38498
S          2.59010        0.06809        0.06017
O          2.50331        0.97888        1.19074
O          2.03275        0.55756       -1.21435
O          1.98423       -1.32829        0.39915
H          0.99742       -1.44407        0.06380
C          4.28885       -0.36812       -0.21123
H          4.82308        0.55388       -0.44165
H          4.67268       -0.81650        0.70502
H          4.33736       -1.06955       -1.04322
H         -0.70144        1.12077        0.95172
H          0.37616        2.46614        0.56778
H         -1.87213        3.08163        1.65742
H         -1.46251        3.98517        0.19578
H         -3.19691        1.60675        0.09209
H         -3.70841        3.17365        0.00265
H          0.34364        1.11520       -1.29184
H         -1.32852        0.83955       -1.19969
C         -0.59098        2.01753        0.33732
C         -1.74093        2.99177        0.56931
N         -0.57357        1.55388       -1.08292
N         -2.92393        2.55470       -0.15982
H         -0.75479        2.32129       -1.72752
