37
2msa1ma1eda_440.log	Energy: -1013353.0063710
S          1.14304       -2.03102        0.19962
O          2.47945       -2.55819       -0.09487
O          0.34955       -1.75372       -1.04579
O          1.18457       -0.81522        1.07683
H          2.35249        0.13624        0.62329
C          0.21000       -3.23943        1.10937
H          0.14118       -4.13864        0.49662
H          0.73702       -3.44449        2.04119
H         -0.77575       -2.81041        1.29686
S         -2.53833        0.01561       -0.20043
O         -2.92719        1.36045        0.20038
O         -2.33764       -1.00609        0.81769
O         -1.24962        0.15620       -1.09289
H         -0.61626       -0.66603       -1.03076
C         -3.74767       -0.58573       -1.36258
H         -4.69048       -0.69560       -0.82564
H         -3.84398        0.14485       -2.16546
H         -3.40704       -1.54795       -1.74562
N         -0.53986        3.16017        1.08359
H         -0.83132        4.01335        1.55024
C         -0.14948        2.15279        2.07676
H         -0.92095        1.94830        2.83003
H          0.07213        1.20876        1.57204
H          0.75994        2.48091        2.59175
H         -1.35676        2.81634        0.58138
H          3.65133        1.26275       -1.80681
H          2.46534       -0.06882       -1.69707
H          1.43783        2.18964       -2.39027
H          0.70871        1.47281       -0.95913
H          2.34561        3.84490       -1.02168
H          1.12655        3.37029        0.01719
H          4.00402        0.29034        0.29867
H          3.07174        1.69733        0.53291
C          2.75961        0.89970       -1.28863
C          1.62608        1.92902       -1.34291
N          3.10166        0.73453        0.14998
N          1.96808        3.06760       -0.49351
