34
2msa1a1eda_213.log	Energy: -988700.0100728
S         -1.85690       -1.41901        0.09519
O         -2.97740       -0.69413       -0.51666
O         -1.64820       -1.21390        1.53270
O         -0.57947       -1.12314       -0.69645
C         -2.13102       -3.16346       -0.15718
H         -3.04235       -3.43235        0.37777
H         -2.24417       -3.34390       -1.22602
H         -1.27643       -3.70800        0.24498
S          2.61650       -0.15686       -0.11040
O          2.79877        0.47239        1.18918
O          2.04819        0.65804       -1.18686
O          1.79655       -1.49058        0.02819
H          0.79929       -1.36084       -0.21225
C          4.18085       -0.80899       -0.64480
H          4.86617        0.03478       -0.73022
H          4.53163       -1.51347        0.10915
H          4.04121       -1.29918       -1.60756
N          0.03415        1.16555        2.59461
H         -0.03678        1.30073        3.59748
H          1.00730        0.95608        2.38009
H         -0.51177        0.33531        2.36122
H         -1.90608        3.03505       -2.04252
H         -2.68121        1.44620       -1.71649
H         -2.88261        3.14797        0.21117
H         -2.18395        1.59025        0.64206
H         -0.81929        4.11553        0.63855
H         -0.42124        2.65978        1.37365
H         -0.21564        1.49354       -2.53485
H          0.08065        2.00488       -0.97093
C         -1.89668        2.14039       -1.41410
C         -2.00453        2.50801        0.07319
N         -0.57533        1.48327       -1.58430
N         -0.75523        3.11415        0.51326
H         -0.58261        0.48570       -1.26030
