41
2msa1dma1tma_77.log	Energy: -1027941.3183563
S         -1.08999        1.86417        0.36010
O         -0.67427        2.22942       -1.00150
O          0.01516        1.25331        1.17098
O         -2.29767        0.99108        0.38925
C         -1.54253        3.35733        1.22124
H         -0.67928        4.02330        1.21441
H         -2.38248        3.81121        0.69510
H         -1.81966        3.09436        2.24207
S          2.85422       -0.14851       -0.25997
O          2.62946       -0.01574       -1.69325
O          2.24966       -1.29767        0.40923
O          2.47041        1.17891        0.49804
H          1.47447        1.22283        0.72278
C          4.60493       -0.14021        0.04850
H          5.01799       -1.01577       -0.45319
H          5.02329        0.77522       -0.36921
H          4.76824       -0.19599        1.12410
N         -1.03483       -1.76735        1.47881
C         -0.21038       -2.89927        1.87460
C         -2.23982       -1.64430        2.28430
H         -0.49628       -0.90559        1.54389
H         -0.73669       -3.83584        1.64816
H          0.72915       -2.88034        1.31916
H          0.02524       -2.90666        2.95282
H         -2.90232       -2.49818        2.08931
H         -2.03815       -1.62590        3.36935
H         -2.76285       -0.72564        2.00961
N         -1.84498       -0.92980       -1.51279
C         -2.52073       -2.23575       -1.33921
H         -2.05456       -2.72726       -0.48488
H         -3.57874       -2.06215       -1.13757
H         -2.40383       -2.82114       -2.25400
C         -2.46026       -0.10270       -2.58017
H         -3.51984        0.02817       -2.35851
H         -1.96340        0.86843       -2.58033
H         -2.33167       -0.60722       -3.54023
C         -0.38122       -1.09165       -1.73068
H          0.07049       -0.10514       -1.83392
H          0.04283       -1.60212       -0.86690
H         -0.22340       -1.67065       -2.64316
H         -1.96953       -0.38377       -0.62666
