32
2msa2ma_19.log	Energy: -953974.8078695
S          2.26826       -0.21606       -0.41181
O          1.41346       -1.23333       -1.04813
O          2.12203       -0.20660        1.07934
O          2.11420        1.15275       -0.98422
H          0.91290        2.10933       -0.37058
C          3.96242       -0.66535       -0.74259
H          4.13795       -1.65704       -0.32523
H          4.10271       -0.67284       -1.82361
H          4.61334        0.07241       -0.27355
S         -2.57764        0.06242       -0.31918
O         -3.54888        1.14094       -0.49022
O         -3.06514       -1.24700        0.13416
O         -1.42939        0.50236        0.60472
H         -0.76479       -0.80277        1.29389
C         -1.76906       -0.19163       -1.89552
H         -2.49985       -0.63004       -2.57620
H         -1.43736        0.77557       -2.27656
H         -0.90846       -0.84830       -1.75396
N         -0.18153       -1.58620        1.70542
H          0.79770       -1.24384        1.59147
C         -0.42206       -2.86189        0.98643
H          0.09459       -3.67334        1.50045
H         -1.49594       -3.03763        0.94043
H         -0.01857       -2.74372       -0.01832
H         -0.40890       -1.66001        2.69382
N          0.17086        2.54700        0.23432
H         -0.23160        3.36139       -0.22266
C          0.75473        2.86966        1.55522
H         -0.03447        3.18703        2.23688
H          1.23749        1.96401        1.92489
H          1.50090        3.65722        1.44708
H         -0.57937        1.79757        0.34300
