35
2msa1a1tma_92.log	Energy: -978608.1915287
S         -0.79802        2.14505        0.06794
O         -1.61891        3.33299        0.15057
O         -0.61692        1.30008        1.24562
O          0.65229        2.62853       -0.42002
H          1.30544        1.90819       -0.25310
C         -1.34269        1.12469       -1.27859
H         -2.28421        0.64919       -0.97858
H         -1.46647        1.76210       -2.15393
H         -0.59014        0.35120       -1.44418
S          1.91809       -0.83553        0.25848
O          0.82572       -1.35352       -0.54676
O          2.37445        0.53900       -0.03623
O          3.17224       -1.77361        0.16126
H          3.96654       -1.29507       -0.33602
C          1.48782       -0.95190        1.97298
H          0.62687       -0.29492        2.11282
H          1.24055       -1.99228        2.18485
H          2.34040       -0.61890        2.56408
N          5.04981       -0.46814       -1.04857
H          5.96655       -0.47416       -0.61263
H          4.67221        0.47584       -0.99438
H          5.16404       -0.70708       -2.02886
N         -3.27602       -1.29472       -0.26204
C         -2.54374       -1.43829        0.98569
H         -1.47776       -1.28304        0.80048
H         -2.87405       -0.68064        1.70130
H         -2.68297       -2.43915        1.43929
C         -4.70621       -1.43534       -0.06001
H         -5.05391       -0.68755        0.65858
H         -5.23234       -1.27279       -1.00554
H         -4.98250       -2.43746        0.32197
C         -2.78430       -2.22519       -1.26335
H         -3.29627       -2.05215       -2.21533
H         -1.71124       -2.07382       -1.41192
H         -2.94474       -3.28152       -0.97316
