40
2msa1dma1eda_570.log	Energy: -1038004.1041331
S         -2.88556        0.07969        0.12935
O         -3.60904        1.06554        0.90891
O         -2.42044       -1.14968        0.75225
O         -1.64549        0.84019       -0.51175
H         -0.91911        0.19836       -0.84257
C         -3.84731       -0.35018       -1.30792
H         -4.73296       -0.88117       -0.95708
H         -4.12656        0.56876       -1.82271
H         -3.24047       -0.99191       -1.94762
S          1.23430       -1.54836       -1.18013
O          1.60195       -2.35988       -2.33152
O          0.22121       -0.48500       -1.50268
O          2.41404       -0.90873       -0.49290
H          2.45061        0.53733       -0.11979
C          0.49706       -2.61055        0.04612
H         -0.41666       -3.02763       -0.37711
H          1.21922       -3.40112        0.25422
H          0.27548       -2.04578        0.95495
N          0.79146       -0.81030        3.03427
C          0.18275        0.35431        2.42177
C          2.23971       -0.81809        2.94075
H          0.49375       -0.89483        3.99851
H          0.31395        0.30494        1.33505
H         -0.89276        0.35924        2.60780
H          0.60575        1.31438        2.77740
H          2.53169       -0.94372        1.89228
H          2.71017        0.10617        3.33152
H          2.64473       -1.66637        3.49844
H          3.04294        3.41066       -0.77045
H          3.04504        1.99685       -1.85882
H          0.95751        3.48254       -2.08071
H          0.63085        1.78275       -1.71507
H          0.25695        4.02866        0.08023
H         -0.54768        2.59056       -0.01241
H          3.49118        1.63274        0.65819
H          1.83428        1.88934        0.77777
C          2.53669        2.47379       -1.01914
C          1.04898        2.70814       -1.31112
N          2.60579        1.57601        0.16152
N          0.36661        3.03198       -0.06021
