37
2msa1ma1eda_289.log	Energy: -1013360.9643018
S         -2.10343       -1.02872       -0.43678
O         -1.98096       -2.01486        0.64375
O         -0.83316       -0.85125       -1.22464
O         -2.63122        0.29597       -0.00494
C         -3.28629       -1.66184       -1.61134
H         -2.91833       -2.62105       -1.97589
H         -4.23832       -1.78534       -1.09471
H         -3.37885       -0.94570       -2.42776
S          2.47476       -0.58910       -0.22648
O          3.14435       -0.91060        1.02186
O          1.87024        0.74400       -0.36763
O          1.42630       -1.69297       -0.57635
H          0.47291       -1.33225       -0.78968
C          3.65438       -0.78384       -1.54552
H          4.44872       -0.05457       -1.38353
H          4.04936       -1.79852       -1.49669
H          3.14865       -0.60668       -2.49444
N         -0.23210        3.76273       -0.97244
H         -0.89531        4.52480       -1.06842
C         -0.46366        2.73755       -2.00497
H         -0.41244        3.12810       -3.02852
H          0.27862        1.94426       -1.88984
H         -1.44619        2.28446       -1.84915
H          0.69499        4.16314       -1.07488
H          0.54875        2.06345        2.76110
H         -1.20354        2.35972        2.82924
H         -0.52753        0.21834        4.01459
H         -1.68494       -0.03624        2.70303
H          1.11440       -0.83097        2.65010
H         -0.22930       -1.51064        1.93333
H         -0.36614        2.64270        0.52259
H          0.30940        1.11994        0.61074
C         -0.42980        1.68851        2.44805
C         -0.65117        0.24796        2.92328
N         -0.46443        1.70558        0.96989
N          0.22947       -0.64539        2.19595
H         -1.34207        1.26541        0.61381
