34
2msa1a1eda_175.log	Energy: -988703.6606405
S          1.95552       -1.15448       -0.17412
O          1.78690       -1.50705        1.26063
O          2.50830        0.20205       -0.38373
O          0.70472       -1.37519       -0.96046
H         -0.67532       -1.70180       -0.39558
C          3.14529       -2.30675       -0.82808
H          4.08270       -2.16731       -0.28964
H          2.75639       -3.31390       -0.67846
H          3.27338       -2.09465       -1.88954
S         -2.55489       -0.64615       -0.02976
O         -3.91847       -1.10890        0.10910
O         -1.63613       -1.92000       -0.13671
O         -2.02797        0.24722        1.01871
H         -0.74353        0.12681        2.20885
C         -2.33265        0.18866       -1.58154
H         -3.04368        1.01634       -1.59013
H         -1.30700        0.57155       -1.65203
H         -2.56323       -0.52031       -2.37694
N          0.18914        0.22083        2.65118
H          0.12533        0.16013        3.66216
H          0.60790        1.14819        2.32004
H          0.80266       -0.53045        2.25932
H          1.33788        3.91024       -0.98162
H         -0.39523        3.92774       -1.33787
H         -0.23590        3.81574        1.02912
H         -0.71875        2.20631        0.48782
H          1.88165        3.07210        1.52383
H          1.76049        1.68992        0.65970
H          0.67407        2.35838       -2.76708
H          1.24129        1.47999       -1.51101
C          0.41925        3.29775       -0.96171
C          0.10523        2.92831        0.48652
N          0.49016        2.10451       -1.80261
N          1.23032        2.34641        1.24136
