42
2msa2eda_117.log	Energy: -1072766.8705341
S          2.50340        0.14606       -0.36545
O          2.69128        1.51771       -0.85983
O          2.18866       -0.87327       -1.38346
O          1.48125        0.10292        0.75711
C          4.02874       -0.35547        0.41347
H          4.80504       -0.36658       -0.35216
H          4.27156        0.36412        1.19544
H          3.87998       -1.35209        0.83271
S         -3.03458       -0.10389       -0.33325
O         -2.57583       -1.29922       -1.07683
O         -2.83386        1.18299       -1.01709
O         -2.42792       -0.07832        1.05498
C         -4.78964       -0.30325       -0.08525
H         -4.96122       -1.24014        0.44466
H         -5.15299        0.54451        0.49558
H         -5.26209       -0.32600       -1.06757
H          0.26573       -3.24609        1.99651
H         -1.16646       -3.76711        1.06726
H          0.77075       -5.09971        0.44276
H          0.24517       -4.12793       -0.93250
H          2.73573       -4.20821       -0.28520
H          2.13170       -2.71974       -0.60093
H         -1.10688       -1.39255        1.08180
H          0.47055       -1.31447        0.57212
C         -0.18235       -3.29640        1.00206
C          0.72387       -4.07581        0.05899
N         -0.38925       -1.90486        0.53613
N          2.06826       -3.51665        0.03445
H         -0.78970       -1.86830       -0.41381
H         -1.09343        3.88197        1.23885
H         -0.01718        3.02229        2.36903
H          1.14186        4.86350        1.01503
H          1.88743        3.26735        0.87021
H          0.83004        4.77118       -1.23633
H          1.46059        3.23963       -1.28020
H         -1.36004        1.44967        1.01256
H         -0.75520        2.16117       -0.35201
C         -0.21786        3.23287        1.31594
C          0.99669        3.85338        0.61806
N         -0.54480        1.96212        0.63439
N          0.78824        3.84999       -0.82417
H          0.26545        1.30014        0.66124
