38
2msa2dma_18.log	Energy: -1003298.0379064
S         -2.83118        0.05492       -0.27886
O         -1.39354       -2.78870       -1.34185
O         -2.95845        1.45159       -0.82585
O         -1.56797       -0.01985        0.65180
C         -4.13849       -0.05243        0.96924
H         -5.10406        0.06807        0.47389
H         -4.07832       -1.02239        1.46768
H         -3.96906        0.75807        1.68260
S          2.73818        0.14142        0.09122
O          2.48235        1.41376        0.81928
O          1.97311        0.04617       -1.17405
O          2.54258       -1.06667        0.94518
C          4.47143        0.16019       -0.32774
H          4.65974        1.02946       -0.95796
H          5.04275        0.22390        0.59846
H          4.70193       -0.76210       -0.86108
N          0.07690       -2.10400        0.38778
C         -0.20959       -3.24258        1.27988
C         -0.09031       -2.39703       -1.06621
H         -0.57571       -1.29412        0.59385
H          0.50844       -4.04209        1.08757
H         -0.11197       -2.90643        2.31211
H         -1.22147       -3.60141        1.09375
H          0.57283       -3.22539       -1.32335
H         -1.97123       -2.00962       -1.36247
H          0.22651       -1.49128       -1.58989
H          1.04954       -1.74825        0.56573
N         -0.07453        2.23858        0.15690
C         -0.03968        2.56781       -1.28669
C         -0.73007        3.26731        0.98721
H         -0.60941        1.34665        0.29308
H          0.46609        3.52640       -1.41840
H          0.52199        1.78073       -1.79050
H         -1.06675        2.60937       -1.65156
H         -0.20275        4.21642        0.87631
H         -1.76552        3.36162        0.65548
H         -0.70208        2.94712        2.02912
H          0.89563        2.04181        0.48478
