38
2msa2dma_22.log	Energy: -1003293.0826461
S          2.34620       -0.48634        0.51374
O          3.35305       -1.53218        0.66853
O          1.41198       -0.69666       -0.64409
O          2.89812        0.90718        0.42391
H          2.02315        1.79736       -0.49009
C          1.32284       -0.48640        1.97740
H          0.88291       -1.47792        2.09655
H          1.96708       -0.26079        2.82806
H          0.53362        0.26073        1.86380
S         -2.24182        0.51636        0.49939
O         -1.33154        1.41223        1.24354
O         -2.18743       -0.90129        0.98131
O         -2.08569        0.60205       -0.97289
H          0.17563       -1.71038       -0.70717
C         -3.90213        1.06083        0.87398
H         -4.05360        0.97302        1.94991
H         -4.00055        2.09882        0.55493
H         -4.60195        0.42422        0.33240
N         -0.67003       -2.34206       -0.70232
C         -0.26229       -3.67078       -0.21356
C         -1.28863       -2.33799       -2.04207
H         -1.32414       -1.87312       -0.02120
H          0.47035       -4.09977       -0.89931
H          0.19348       -3.56004        0.77069
H         -1.13592       -4.32136       -0.14325
H         -0.55864       -2.67906       -2.77863
H         -2.15587       -3.00161       -2.04310
H         -1.60659       -1.31606       -2.25278
N          1.51249        2.54362       -1.07340
C          0.74587        3.41075       -0.14441
C          0.67827        1.91213       -2.12698
H          2.25872        3.08333       -1.50987
H         -0.01191        2.79568        0.34869
H          1.43546        3.81798        0.59584
H          0.27150        4.21763       -0.70669
H         -0.15889        1.39641       -1.65180
H          0.30500        2.68904       -2.79818
H          1.29222        1.19267       -2.66759
