37
2msa1ma1eda_583.log	Energy: -1013337.4128172
S         -2.00830       -1.89427        0.10580
O         -2.89322       -0.77125        0.39204
O         -1.04207       -2.27645        1.12748
O         -1.26887       -1.67175       -1.27919
H         -0.49578       -1.04150       -1.16851
C         -2.99225       -3.30229       -0.34538
H         -3.57795       -3.56841        0.53511
H         -3.64400       -3.01799       -1.17102
H         -2.32318       -4.11425       -0.62763
S          1.77414        0.24325       -0.03643
O          0.67545        0.04236       -0.99652
O          2.57221        1.45175       -0.23055
O          2.71519       -1.00547       -0.07222
H          3.71358       -0.72106       -0.39632
C          1.09623        0.20498        1.59459
H          0.34418        1.00461        1.65322
H          0.61808       -0.76669        1.73476
H          1.91225        0.35870        2.30098
N          5.02703       -0.23267       -0.77297
H          5.62459       -0.93818       -1.19372
C          5.66367        0.37831        0.40608
H          6.62848        0.83971        0.17525
H          4.98593        1.13886        0.79736
H          5.80813       -0.38940        1.16888
H          4.84234        0.47803       -1.47711
H         -1.18929        3.68237        0.11999
H         -0.69189        2.15321       -0.61506
H         -2.55967        3.18423       -1.83789
H         -2.98236        1.58917       -1.19268
H         -4.64366        3.45009       -0.85676
H         -4.22776        2.68082        0.51402
H         -2.19100        2.54846        1.87073
H         -2.07855        1.08216        1.14037
C         -1.49486        2.64570       -0.05590
C         -2.75986        2.63127       -0.91316
N         -1.62240        1.98712        1.24563
N         -3.87218        3.28582       -0.21974
