41
2msa1dma1tma_114.log	Energy: -1027937.9004063
S         -2.35648       -0.00977        0.28317
O         -1.88183       -0.98828       -0.69905
O         -2.07729        1.39647        0.03579
O         -1.88855       -0.43972        1.71910
H         -0.96532       -0.04565        1.99818
C         -4.11079       -0.23193        0.46836
H         -4.56151       -0.00294       -0.49781
H         -4.30338       -1.26720        0.74835
H         -4.46500        0.45729        1.23411
S          1.42776        0.62809        1.47027
O          2.64457       -0.14517        1.75487
O          0.33974        0.40268        2.47567
O          0.91291        0.42067        0.08326
H          0.85759       -1.09331       -0.55946
C          1.82206        2.36016        1.57735
H          2.15648        2.56745        2.59396
H          2.61122        2.57484        0.85655
H          0.91791        2.92163        1.34049
N         -0.10829        2.05981       -2.39344
C          1.01741        2.93744       -2.14524
C          0.28406        0.83104       -3.04566
H         -0.56979        1.83896       -1.51545
H          1.42882        3.29626       -3.09673
H          0.68521        3.81130       -1.57718
H          1.83547        2.44581       -1.58602
H          0.58254        1.03120       -4.08250
H          1.13768        0.33066       -2.54350
H         -0.56317        0.13919       -3.05964
N          1.09298       -2.11067       -0.71940
C          2.57377       -2.16262       -0.82197
H          2.87913       -1.58609       -1.69618
H          2.99571       -1.71166        0.07811
H          2.88742       -3.20365       -0.92788
C          0.60442       -2.81836        0.49303
H          1.10015       -2.39109        1.36597
H         -0.47190       -2.66400        0.56594
H          0.84105       -3.88109        0.40372
C          0.43034       -2.60409       -1.94943
H         -0.64222       -2.44969       -1.84674
H          0.80274       -2.03466       -2.80089
H          0.66564       -3.66361       -2.07636
