42
2msa2eda_14.log	Energy: -1072771.3267236
S         -2.33395       -1.15769       -0.62675
O         -1.66028       -2.23345       -1.39215
O         -2.56276        0.08691       -1.40831
O         -1.63303       -0.86672        0.65841
C         -3.95112       -1.78085       -0.20627
H         -4.48418       -1.98434       -1.13519
H         -3.82430       -2.69530        0.37326
H         -4.47161       -1.02088        0.37731
S          2.33424        1.15784       -0.62646
O          1.63351        0.86730        0.65889
O          1.66005        2.23289       -1.39244
O          2.56362       -0.08706       -1.40734
C          3.95114        1.78208       -0.20650
H          3.82389        2.69689        0.37237
H          4.47209        1.02282        0.37757
H          4.48399        1.98521       -1.13562
H         -1.08193        3.73725        0.83854
H         -2.17676        3.59774       -0.56553
H         -3.35237        3.28691        1.62853
H         -3.49633        1.87794        0.56973
H         -2.68730        1.69789        3.09858
H         -2.05414        0.69648        1.95262
H         -0.08445        2.31753       -0.86136
H         -0.41249        1.46294        0.48230
C         -1.72737        3.06158        0.27363
C         -2.79314        2.45780        1.18499
N         -0.87373        1.98433       -0.27725
N         -2.16162        1.66960        2.23528
H         -1.44821        1.30119       -0.81852
H          1.08093       -3.73721        0.83875
H          2.17598       -3.59863       -0.56523
H          3.35167       -3.28757        1.62863
H          3.49593       -1.87866        0.56971
H          2.68707       -1.69804        3.09845
H          2.05383       -0.69685        1.95242
H          1.44860       -1.30162       -0.81871
H          0.08441       -2.31762       -0.86194
C          1.72673       -3.06201        0.27370
C          2.79264       -2.45838        1.18500
N          0.87364       -1.98455       -0.27766
N          2.16122       -1.66995        2.23524
H          0.41226       -1.46292        0.48163
