43
2msa1eda1tma_80.log	Energy: -1062681.0478116
S          0.09715        2.31718        0.15343
O         -1.38974        2.21929        0.31359
O          0.52993        1.94108       -1.22008
O          0.83939        1.59262        1.19973
C          0.44941        4.05527        0.32445
H         -0.11621        4.59339       -0.43610
H          0.14563        4.36426        1.32471
H          1.52078        4.19787        0.18230
S         -2.55226       -0.99593        0.63947
O         -1.20048       -1.57903        0.69553
O         -3.13998       -0.86952       -0.68587
O         -2.59372        0.34853        1.42848
H         -2.05854        1.11911        0.96295
C         -3.60685       -1.97645        1.67797
H         -3.67001       -2.96467        1.22186
H         -3.16067       -2.03217        2.67024
H         -4.58734       -1.50243        1.71105
H          1.74718       -1.54620       -2.74853
H          0.72788       -2.68675       -1.82891
H         -0.48466       -1.96955       -3.79292
H         -1.27803       -1.27896       -2.37178
H         -0.82714        0.25114       -4.33075
H         -0.22738        0.83084       -2.92849
H          1.84120       -1.01492       -0.38217
H          0.96265        0.20566       -1.16876
C          0.83152       -1.65060       -2.16172
C         -0.37189       -1.22854       -2.99483
N          0.96579       -0.80921       -0.94799
N         -0.14038        0.07593       -3.60679
H          0.16370       -0.97730       -0.31664
N          3.12223       -1.18136        0.78722
C          2.37402       -1.31611        2.03854
H          1.67449       -0.48161        2.13152
H          1.80391       -2.24975        2.02552
H          3.04537       -1.32488        2.91312
C          4.02639       -2.30523        0.57971
H          3.46006       -3.24122        0.57300
H          4.53324       -2.19889       -0.38387
H          4.79322       -2.36985        1.37027
C          3.83560        0.09508        0.74455
H          4.33005        0.20734       -0.22514
H          3.11637        0.90781        0.87413
H          4.60005        0.16001        1.53675
