32
2msa2ma_108.log	Energy: -953959.5423965
S          1.82918       -0.03556       -0.09963
O          2.62485        0.02749       -1.32633
O          1.21275        1.21885        0.35616
O          2.71589       -0.59784        1.05481
H          3.72914       -0.80700        0.69960
C          0.55089       -1.24913       -0.27711
H          1.01156       -2.18461       -0.59367
H          0.03629       -1.37652        0.67567
H         -0.16248       -0.89643       -1.02546
S         -3.07782       -0.74564        0.06378
O         -2.44104       -2.02161        0.40679
O         -2.49178       -0.09638       -1.15812
O         -3.13355        0.23549        1.19169
H         -2.02126        1.59766        0.85899
C         -4.77799       -1.10614       -0.34888
H         -4.78132       -1.80545       -1.18527
H         -5.24592       -1.55548        0.52741
H         -5.27865       -0.17637       -0.61923
N         -1.43968        2.03362        0.11139
H         -0.44634        1.79153        0.27593
C         -1.65612        3.48116       -0.05048
H         -1.06447        3.84396       -0.89089
H         -2.71388        3.66550       -0.23789
H         -1.35033        3.99775        0.85923
H         -1.75727        1.45895       -0.69950
N          5.04496       -0.99862        0.15564
H          5.62217       -1.63721        0.69509
C          5.69284        0.31672        0.00868
H          6.67479        0.24905       -0.46885
H          5.04012        0.94909       -0.59517
H          5.80309        0.77039        0.99528
H          4.89140       -1.41422       -0.76002
