37
2msa1ma1eda_379.log	Energy: -1013358.4860159
S          1.97516       -1.25014       -0.59809
O          3.30702       -1.82597       -0.76058
O          1.63878       -0.12095       -1.48735
O          1.73259       -0.82221        0.86040
H          2.13190        0.71273        0.99750
C          0.76750       -2.53119       -0.87814
H          0.91118       -2.89046       -1.89797
H          0.95972       -3.33881       -0.17000
H         -0.23894       -2.11784       -0.75912
S         -2.54023        0.10893       -0.50869
O         -3.94073        0.51812       -0.56242
O         -2.28396       -1.34673       -0.40057
O         -1.76498        0.82577        0.58899
H         -1.19768       -0.25572        1.57218
C         -1.76643        0.63228       -2.03315
H         -2.29626        0.13935       -2.84934
H         -1.87025        1.71469       -2.12252
H         -0.71537        0.33313       -2.02382
N         -0.64293       -0.94329        2.18310
H          0.27602       -1.03963        1.68939
C         -1.33601       -2.24076        2.35364
H         -0.69726       -2.92680        2.91125
H         -2.27351       -2.07876        2.88548
H         -1.56494       -2.62642        1.36202
H         -0.46995       -0.49713        3.08084
H          2.73217        3.52491        0.12341
H          2.72460        2.03995       -0.88863
H          0.59579        3.47644       -1.11411
H          0.36369        1.77604       -0.68774
H         -0.12653        4.04550        1.02876
H         -0.83249        2.54788        0.95754
H          3.26851        1.81074        1.61485
H          1.60837        2.13097        1.78359
C          2.24095        2.56627       -0.06558
C          0.74065        2.73260       -0.32325
N          2.35547        1.74656        1.17263
N          0.05356        3.05375        0.92800
