42
2msa2eda_474.log	Energy: -1072748.2030687
S         -1.77210       -1.71624       -0.75120
O         -3.03193       -2.39373       -0.97402
O         -0.53526       -2.51936       -0.79783
O         -1.84333       -1.02263        0.66141
H         -0.91114       -0.80749        1.09477
C         -1.59732       -0.37503       -1.89706
H         -1.66513       -0.80889       -2.89575
H         -2.41398        0.32756       -1.70636
H         -0.61644        0.08307       -1.74173
S          2.49311        0.99138       -0.55109
O          1.85253        1.76282        0.54143
O          1.51635        0.34112       -1.45254
O          3.47757       -0.01040       -0.01906
H          2.66682       -1.40698        0.08509
C          3.44092        2.15303       -1.51075
H          2.75025        2.90016       -1.90280
H          4.17660        2.61547       -0.85274
H          3.92797        1.61167       -2.32164
H         -1.70651        1.59205        1.66644
H         -1.68417        3.34466        1.90834
H         -3.96609        2.60500        1.76954
H         -3.59493        3.54872        0.31206
H         -3.66919        0.61534        0.43199
H         -4.69290        1.59147       -0.39228
H         -0.10718        2.62189        0.16140
H         -1.39233        2.16275       -0.75024
C         -1.90188        2.56287        1.17170
C         -3.38699        2.60824        0.83253
N         -1.09384        2.79211       -0.01373
N         -3.73867        1.50174       -0.06189
H          0.63886       -3.03564        1.55564
H          2.35046       -3.06528        2.05028
H          1.18118       -1.48781        3.41507
H          2.34965       -0.62978        2.40527
H         -0.13642        0.13440        2.70045
H          0.72349        0.47585        1.37161
H          2.35105       -3.04268       -0.25588
H          1.12374       -1.96543       -0.38266
C          1.56784       -2.46163        1.58500
C          1.40062       -1.17735        2.38985
N          1.96749       -2.20321        0.17368
N          0.31553       -0.30574        1.90309
