37
2msa1ma1eda_145.log	Energy: -1013360.3690589
S          0.71021       -2.30930       -0.22057
O         -0.34338       -1.73831        0.79749
O          1.80115       -2.85806        0.56381
O          1.01723       -1.30529       -1.24021
C         -0.17535       -3.62557       -1.02829
H         -0.45993       -4.35919       -0.27447
H         -1.05322       -3.19456       -1.51172
H          0.49678       -4.06520       -1.76581
S         -2.50962        0.77941       -0.10126
O         -1.79895        1.58724       -1.12629
O         -2.19419        1.17156        1.28309
O         -2.32031       -0.69624       -0.32649
H         -1.16025       -1.29347        0.33065
C         -4.24792        1.05811       -0.37159
H         -4.44243        2.11910       -0.21401
H         -4.48456        0.76959       -1.39560
H         -4.80453        0.45209        0.34309
N          0.67543        1.07078        2.17137
H          0.57107        1.93089        2.70118
C          1.64546        0.17583        2.81085
H          1.39899       -0.06079        3.85309
H          1.69582       -0.76034        2.25181
H          2.63717        0.63829        2.78968
H         -0.25720        0.65753        2.14147
H          1.57931        2.88667       -1.96405
H          1.20212        3.51696       -0.35298
H          3.65546        3.46564       -0.66750
H          3.17560        2.31893        0.58579
H          4.00352        1.60627       -2.12749
H          4.46329        0.94624       -0.69489
H         -0.07002        1.50247       -0.91089
H          1.36250        0.62556       -0.99695
C          1.66691        2.68776       -0.89212
C          3.12841        2.51705       -0.49046
N          0.91844        1.45678       -0.58335
N          3.69287        1.37302       -1.19190
H          0.87644        1.30543        0.47455
