37
2msa1ma1eda_132.log	Energy: -1013363.8686478
S          0.50314        1.90180        0.03198
O          0.10719        1.26002       -1.25461
O          1.94562        1.77295        0.32001
O         -0.33931        1.41529        1.16629
C          0.15485        3.64036       -0.14163
H          0.42879        4.13162        0.79207
H          0.74980        4.02394       -0.97049
H         -0.91044        3.75937       -0.34052
S         -2.93335       -0.81568        0.03050
O         -4.24518       -1.36079        0.30134
O         -1.79170       -1.73498       -0.02686
O         -2.66152        0.30130        1.11129
H         -1.72643        0.68794        1.07926
C         -2.96764        0.09853       -1.49680
H         -3.16198       -0.61901       -2.29524
H         -3.77671        0.82630       -1.43337
H         -1.99831        0.58666       -1.62965
N          1.70120       -0.83855        1.92307
H          2.05538        0.10790        1.79357
C          2.72454       -1.71967        2.49076
H          3.11374       -1.37311        3.45603
H          2.30596       -2.72055        2.62871
H          3.54990       -1.78376        1.77698
H          0.89026       -0.75451        2.52897
H          2.33232       -2.90168       -0.87488
H          1.44514       -2.48363       -2.36057
H          3.76968       -1.68052       -2.44048
H          2.62154       -0.34198       -2.52709
H          4.63514       -0.25991       -0.89936
H          3.19391        0.27557       -0.35104
H          0.02091       -1.90546       -0.54890
H          1.24788       -1.20381        0.36763
C          1.92691       -2.07759       -1.46679
C          3.03914       -1.11085       -1.85800
N          0.90382       -1.39263       -0.64576
N          3.69103       -0.55321       -0.67880
H          0.63687       -0.47347       -1.04568
