43
2msa1eda1tma_08.log	Energy: -1062693.7283912
S         -2.71021       -0.78467       -0.31019
O         -2.26923       -1.80928       -1.29076
O         -3.39390        0.38046       -0.89951
O         -1.58533       -0.38059        0.59851
C         -3.90386       -1.59765        0.74233
H         -4.73652       -1.92149        0.11731
H         -3.42305       -2.45304        1.21733
H         -4.24353       -0.88251        1.49205
S          2.42322        0.77433       -0.49928
O          2.30193        2.14767       -1.01659
O          2.35800       -0.28545       -1.54304
O          1.46301        0.49546        0.61374
C          4.05420        0.63725        0.22127
H          4.78926        0.79998       -0.56737
H          4.15107        1.39687        0.99760
H          4.16341       -0.36174        0.64678
H          0.22660       -3.77607        0.43024
H          1.24782       -3.84030       -1.03080
H          2.61517       -3.95823        1.01323
H          2.98414       -2.49914        0.08617
H          2.54115       -2.34554        2.63598
H          1.77340       -1.23164        1.69681
H         -0.48630       -2.10743       -1.15424
H          0.08707       -1.37709        0.16345
C          0.98700       -3.24871       -0.14967
C          2.21733       -2.98481        0.71028
N          0.39253       -1.97740       -0.61999
N          1.85537       -2.22743        1.90105
H          1.08079       -1.40612       -1.15634
N         -0.91539        2.36689        0.50386
C         -0.97827        2.67761       -0.95278
H          0.00864        2.50055       -1.38255
H         -1.73391        2.03073       -1.40103
H         -1.25615        3.72787       -1.06784
C         -2.23985        2.55423        1.15220
H         -2.97775        1.97039        0.60165
H         -2.17362        2.20667        2.18349
H         -2.48810        3.61756        1.12592
C          0.13923        3.15737        1.18962
H          0.25018        2.78108        2.20661
H          1.07383        3.04158        0.64304
H         -0.17370        4.20408        1.20347
H         -0.68598        1.35625        0.57795
