42
2msa2eda_601.log	Energy: -1072737.1425240
S         -0.93924       -1.32055        0.13561
O          0.36689       -1.98194        0.21499
O         -1.24931       -0.70317       -1.18258
O         -1.10279       -0.26929        1.22714
H         -1.07829        1.11592        0.49328
C         -2.19989       -2.52937        0.45984
H         -2.13910       -3.27989       -0.32928
H         -1.98549       -2.97994        1.42962
H         -3.17596       -2.03157        0.46396
S          4.04452       -0.09748       -0.41233
O          5.48785       -0.10575       -0.54297
O          3.27837        0.97449       -1.05499
O          3.69619       -0.10021        1.13034
H          2.78117        0.33365        1.31925
C          3.39690       -1.65595       -0.97049
H          3.58025       -1.71314       -2.04429
H          3.93554       -2.44652       -0.44764
H          2.32838       -1.70192       -0.74491
H         -5.14652        1.42283        1.03894
H         -3.53937        0.67576        1.17847
H         -3.73242        1.88668       -0.93836
H         -3.55222        0.14312       -1.22712
H         -6.05009        1.66690       -1.46819
H         -5.32493        0.70769       -2.58507
H         -5.35971       -0.87450        1.73796
H         -5.84579       -0.80615        0.16696
C         -4.49122        0.62971        0.63633
C         -4.23591        0.90635       -0.84206
N         -5.04682       -0.70994        0.78797
N         -5.48522        0.83401       -1.59350
H          0.62872        3.09853        1.51446
H          2.21562        2.80737        0.78751
H          0.79867        2.86218       -1.07158
H          1.04786        1.14019       -0.79157
H         -1.38106        2.70124       -0.13692
H         -1.20254        1.32764       -1.10109
H          1.65982        1.38750        2.74624
H          0.63743        0.52466        1.79076
C          1.24093        2.35288        0.98337
C          0.61541        2.04774       -0.36929
N          1.45724        1.13897        1.78236
N         -0.86228        1.83684       -0.27333
