35
2msa1a1tma_60.log	Energy: -978618.5771179
S         -0.53696        0.69082        0.50142
O          0.72997        1.11204        1.20676
O         -0.51511       -0.72150        0.10043
O         -0.80081        1.64460       -0.62154
H          0.60925        2.34078       -0.98005
C         -1.85589        0.90953        1.66805
H         -1.64581        0.26860        2.52511
H         -1.88093        1.95818        1.96476
H         -2.78403        0.60584        1.16654
S          3.36100       -0.72222       -0.12744
O          4.74361       -1.12390       -0.00058
O          3.04233        0.34982       -1.09187
O          2.84761       -0.29800        1.29735
H          1.96364        0.21371        1.26424
C          2.35155       -2.12132       -0.54631
H          2.63829       -2.43519       -1.55063
H          2.56170       -2.90630        0.18024
H          1.30392       -1.81096       -0.50466
N          1.62602        2.66100       -0.97344
H          1.79386        3.07481       -0.05809
H          1.83810        3.32000       -1.71685
H          2.22043        1.80195       -1.04592
N         -4.19532       -0.50389       -0.18032
C         -5.62164       -0.28829       -0.02451
H         -5.91859       -0.49621        1.00822
H         -5.86519        0.75523       -0.24678
H         -6.22451       -0.93332       -0.69293
C         -3.74998       -0.16730       -1.52349
H         -3.96551        0.88467       -1.73198
H         -2.66978       -0.31199       -1.60024
H         -4.24654       -0.78713       -2.29490
C         -3.81811       -1.86352        0.17111
H         -2.73264       -1.97035        0.09353
H         -4.11375       -2.07352        1.20417
H         -4.29783       -2.61533       -0.48464
