38
2msa1ma1tma_117.log	Energy: -1003275.4388243
S          2.80557       -0.33534       -0.25837
O          1.88132       -1.47437       -0.27083
O          3.28247        0.12665        1.03441
O          2.19511        0.84752       -1.09407
H          1.16448        0.90219       -1.00575
C          4.21047       -0.72719       -1.27616
H          4.74425       -1.53965       -0.78226
H          3.85487       -1.03372       -2.25922
H          4.83946        0.16029       -1.34428
S         -1.16602        1.81234       -0.08303
O         -1.64511        2.98003       -0.81251
O         -0.29628        0.89225       -0.91246
O         -2.25854        0.96642        0.51256
H         -2.25995       -0.41754       -0.17375
C         -0.15704        2.34716        1.27899
H          0.68048        2.91530        0.87128
H         -0.77638        2.98457        1.91135
H          0.18561        1.45598        1.81763
N          0.38617       -0.68793        2.47427
H          0.63673       -1.09856        1.57935
C         -0.90048       -1.15269        2.97014
H         -1.01017       -2.24856        3.04147
H         -1.07480       -0.73978        3.96783
H         -1.69267       -0.75420        2.32639
H          1.14335       -0.90070        3.11286
N         -2.40274       -1.33997       -0.70671
C         -3.64371       -1.93707       -0.16799
H         -3.50438       -2.13211        0.89606
H         -4.46103       -1.22739       -0.30003
H         -3.86238       -2.86975       -0.69355
C         -2.53834       -0.96039       -2.13430
H         -3.36786       -0.25881       -2.23097
H         -1.61619       -0.46531       -2.43835
H         -2.72383       -1.85688       -2.73098
C         -1.21829       -2.20248       -0.48239
H         -0.31925       -1.65303       -0.76330
H         -1.16543       -2.45615        0.57681
H         -1.31926       -3.11493       -1.07568
