37
2msa1ma1eda_311.log	Energy: -1013356.4524773
S         -1.11819        2.09347       -0.09342
O          0.12884        1.74719       -0.87138
O         -0.86905        2.28488        1.33718
O         -2.19508        1.11722       -0.42012
C         -1.65480        3.65527       -0.76307
H         -0.87888        4.39409       -0.56239
H         -1.81215        3.53615       -1.83482
H         -2.58427        3.92796       -0.26272
S          2.66211       -0.53386       -0.28128
O          1.72471       -1.07348       -1.27867
O          2.98700       -1.36010        0.86742
O          2.17741        0.86539        0.20786
H          1.29881        1.22501       -0.24071
C          4.16820       -0.13861       -1.14073
H          3.92707        0.52920       -1.96748
H          4.84450        0.34127       -0.43345
H          4.59254       -1.07434       -1.50577
N          0.06686       -0.54452        2.24174
H          1.05460       -0.76151        2.33251
C         -0.67289       -0.93728        3.43675
H         -0.33846       -0.44839        4.36322
H         -1.73196       -0.69759        3.29779
H         -0.59237       -2.02016        3.58168
H         -0.01797        0.45871        2.09354
H         -0.87049       -3.13421       -0.35948
H         -0.99052       -1.77039        0.78909
H         -3.15700       -3.08114        0.69352
H         -3.36687       -1.42431        0.11324
H         -3.25177       -3.82277       -1.55814
H         -4.32830       -2.59258       -1.59517
H         -0.03859       -1.11985       -1.32382
H         -1.49177       -1.55982       -2.09141
C         -1.38927       -2.19615       -0.14017
C         -2.89791       -2.38634       -0.11568
N         -1.06234       -1.23377       -1.22261
N         -3.35370       -2.82036       -1.44037
H         -1.47518       -0.29857       -0.98636
