32
2msa2ma_237.log	Energy: -953949.4066188
S         -1.73058       -0.86330       -0.29424
O         -2.82611       -1.73471       -0.68263
O         -1.59078        0.43966       -0.93932
O         -0.39026       -1.69317       -0.52651
H          0.39270       -1.07546       -0.60991
C         -1.77038       -0.62072        1.46411
H         -2.71782       -0.11348        1.67338
H         -1.74703       -1.60278        1.93704
H         -0.90109       -0.02160        1.74277
S          1.87791        1.06339        0.14360
O          1.22744        0.89562        1.44254
O          1.74546       -0.17472       -0.72952
O          3.32613        1.43461        0.21224
H          4.26452        0.12305       -0.22595
C          1.04820        2.36413       -0.73640
H          0.00907        2.05412       -0.86322
H          1.12455        3.26976       -0.13409
H          1.53892        2.49515       -1.70066
N          4.29624       -0.89541       -0.51083
H          3.33931       -0.96852       -0.91944
C          4.41221       -1.76265        0.68557
H          4.29693       -2.80681        0.39689
H          5.38130       -1.60317        1.15687
H          3.61716       -1.47968        1.37554
H          5.01422       -1.07362       -1.20842
N         -4.94673        0.12443        0.74711
H         -4.72097       -0.71399        0.21818
C         -4.99393        1.28414       -0.14283
H         -5.76288        1.22581       -0.92763
H         -5.17703        2.18815        0.44612
H         -4.02208        1.39650       -0.63043
H         -5.84512       -0.02581        1.19233
