25
2msa1ma_66.log	Energy: -893789.4739707
S         -1.85587       -0.82863        0.09778
O         -3.28988       -0.74312        0.20608
O         -1.03368       -0.30977        1.20355
O         -1.43436       -0.08162       -1.23943
H         -0.47043        0.15080       -1.23148
C         -1.36143       -2.50991       -0.19956
H         -1.64375       -3.08422        0.68390
H         -1.89753       -2.86549       -1.07931
H         -0.28003       -2.53944       -0.35120
S          2.03254       -0.30412       -0.09456
O          1.20878        0.45552       -1.04975
O          2.06887       -1.74505       -0.27127
O          1.58128        0.06996        1.37683
H          0.59542       -0.06250        1.44494
C          3.66420        0.37913       -0.07661
H          3.58268        1.44918        0.11206
H          4.23152       -0.12322        0.70660
H          4.09775        0.18370       -1.05774
N         -0.38282        2.89372        0.42375
H          0.22244        2.38153       -0.20899
C         -1.51142        3.47023       -0.30356
H         -2.14203        2.73766       -0.82929
H         -2.14575        4.02450        0.39384
H         -1.13786        4.18775       -1.04013
H         -0.71550        2.22375        1.10933
