34
2msa1a1eda_108.log	Energy: -988703.4770187
S          1.62497       -1.61336       -0.32510
O          2.44184       -0.44840        0.11156
O          1.31848       -1.66097       -1.75191
O          0.38557       -1.71497        0.54451
C          2.58361       -3.05851        0.09090
H          3.51613       -3.01168       -0.47216
H          2.77960       -3.04963        1.16299
H          2.00780       -3.93982       -0.19236
S         -2.44401       -0.06046       -0.18563
O         -1.49211        0.92275       -0.71763
O         -2.87530        0.14050        1.19527
O         -1.91178       -1.51140       -0.40435
H         -0.93014       -1.62487       -0.06075
C         -3.86905       -0.09216       -1.24145
H         -4.34457        0.88541       -1.15836
H         -3.53607       -0.28002       -2.26155
H         -4.53703       -0.87848       -0.89092
N         -0.34473        0.10139        2.95969
H         -0.21181        0.02617        3.96199
H         -0.00060       -0.75369        2.52097
H         -1.34522        0.13608        2.76715
H          0.72999        3.67989        1.05564
H          2.22501        2.89638        1.63377
H          2.59769        4.09382       -0.49933
H          2.88415        2.35590       -0.67195
H          1.41636        3.60048       -2.39158
H          0.81744        2.19032       -1.84105
H          0.40820        1.28722        1.81964
H         -0.03546        1.56158        0.24253
C          1.46520        2.89944        0.84835
C          2.10471        3.11742       -0.51827
N          0.77556        1.59174        0.88075
N          1.08281        3.12976       -1.55942
H          1.42732        0.82847        0.58306
