40
2msa1dma1eda_283.log	Energy: -1038018.7036868
S          2.58989        0.16024        0.44795
O          1.83353        1.10692        1.31035
O          2.83810        0.66813       -0.90980
O          1.94154       -1.19912        0.43977
C          4.16384       -0.09242        1.24152
H          3.98813       -0.51197        2.23187
H          4.74641       -0.77704        0.62513
H          4.65803        0.87656        1.31385
S         -1.01197       -2.49528       -0.42861
O         -1.89299       -3.18019       -1.34884
O         -1.56627       -1.36038        0.33293
O          0.25067       -2.01150       -1.22622
H          0.98044       -1.62900       -0.59886
C         -0.34305       -3.64017        0.75704
H         -1.16855       -3.97984        1.38319
H          0.09751       -4.47325        0.20954
H          0.40915       -3.11380        1.34714
N         -3.13720        2.13965        0.91641
C         -3.22349        1.47306        2.21683
C         -3.92602        1.45582       -0.11049
H         -3.45092        3.10061        1.00464
H         -2.79141        0.47081        2.13055
H         -2.64725        2.03428        2.95644
H         -4.25759        1.36757        2.57583
H         -3.51324        0.45350       -0.26745
H         -4.98505        1.34618        0.16426
H         -3.86337        2.00839       -1.05171
H          0.38565        0.83278       -1.77375
H         -1.32960        1.25449       -1.95439
H          0.07092        3.09100       -2.76899
H         -0.81520        3.62802       -1.35192
H          1.15637        3.48924       -0.06591
H          1.97979        2.73067       -1.24599
H         -0.88990        0.25518        0.15597
H          0.25478        1.38662        0.56190
C         -0.40237        1.50779       -1.43225
C         -0.00654        2.96421       -1.68352
N         -0.61954        1.24460        0.01392
N          1.23519        3.40295       -1.07313
H         -1.42191        1.80872        0.38880
