42
2msa2eda_428.log	Energy: -1072748.5901542
S         -0.95457        2.22798       -0.56980
O         -1.92403        1.32505       -1.27256
O          0.43533        2.04571       -1.01356
O         -1.11820        2.15721        0.91014
C         -1.45235        3.87215       -1.04172
H         -1.36679        3.95057       -2.12557
H         -2.48292        4.02413       -0.72159
H         -0.78407        4.57962       -0.55058
S         -2.01953       -1.80267        0.19776
O         -1.82732       -1.75757        1.65566
O         -0.80724       -1.81239       -0.61059
O         -2.98345       -0.66463       -0.25067
H         -2.49414        0.17566       -0.66150
C         -3.00588       -3.23353       -0.16442
H         -3.94877       -3.14569        0.37482
H         -3.17008       -3.26923       -1.24093
H         -2.44510       -4.10495        0.17452
H          1.73635       -1.07849        1.54436
H          0.94110       -0.09610        0.30007
H          3.16633        0.86404        0.84776
H          1.86788        1.96870        1.27442
H          3.38686        0.32267        3.16991
H          3.09811        1.92998        3.22699
H         -0.49670       -0.63381        2.25199
H          0.54600        0.37455        3.15807
C          1.31583       -0.09406        1.32189
C          2.33162        1.01409        1.54055
N          0.16479        0.15897        2.23132
N          2.69742        1.03820        2.96170
H         -0.36603        0.98415        1.86172
H          2.60420       -3.14394       -1.64368
H          1.58830       -1.97552       -0.82691
H          3.78750       -1.32136       -2.84114
H          2.04094       -1.25374       -3.13685
H          3.31282        0.87855       -2.46624
H          1.92611        0.61406       -1.66258
H          4.41774       -2.53549       -0.39916
H          3.84368       -1.04435       -0.08963
C          2.59132       -2.12621       -1.23931
C          2.81797       -1.11712       -2.36925
N          3.57484       -2.02455       -0.15666
N          2.86074        0.24052       -1.82200
