44
2msa2tma_70.log	Energy: -1052594.9049966
S         -2.67635       -1.33148        0.22816
O         -4.00855       -1.14491        0.76756
O         -2.16836       -2.67828       -0.01498
O         -1.67379       -0.58190        1.21914
H         -0.74766       -0.96594        1.16329
C         -2.51897       -0.39225       -1.27256
H         -3.23294       -0.81246       -1.98264
H         -2.74433        0.65575       -1.05434
H         -1.49308       -0.50576       -1.62926
S          1.37583       -1.65859       -0.26714
O          0.80154       -0.77446       -1.29997
O          0.79839       -1.41048        1.08520
O          2.87585       -1.55612       -0.21319
H          3.24187       -0.09563        0.08950
C          1.00735       -3.34134       -0.69626
H          1.46588       -3.98829        0.05152
H         -0.08011       -3.44134       -0.68228
H          1.41711       -3.53554       -1.68745
N          3.41293        0.95591        0.26485
C          2.56971        1.33842        1.42559
H          1.52693        1.13404        1.18621
H          2.85436        0.72847        2.28294
H          2.71498        2.39980        1.64040
C          4.85364        1.13822        0.54426
H          5.11557        0.56770        1.43591
H          5.42814        0.76671       -0.30471
H          5.06458        2.19837        0.70421
C          2.98500        1.65134       -0.97510
H          3.64313        1.34781       -1.78969
H          1.96705        1.33482       -1.20759
H          3.04047        2.73185       -0.82318
N         -1.94466        2.79538       -0.31946
C         -0.57637        2.37689       -0.54123
H         -0.42442        1.37353       -0.13301
H         -0.36832        2.33099       -1.61545
H          0.15690        3.06964       -0.07445
C         -2.21166        4.08670       -0.92258
H         -2.00846        4.04570       -1.99715
H         -3.26439        4.34851       -0.78372
H         -1.59441        4.89561       -0.48300
C         -2.27944        2.78219        1.09533
H         -3.33440        3.03768        1.22765
H         -2.11801        1.78162        1.50317
H         -1.67224        3.50663        1.67430
