34
2msa1a1eda_350.log	Energy: -988681.6498799
S         -1.34591       -1.76510       -0.28804
O         -1.20572       -3.19832       -0.43739
O         -0.51203       -1.10775        0.75237
O         -2.83679       -1.39196        0.04724
H         -2.89749       -0.82567        0.91859
C         -1.05839       -0.95819       -1.83474
H          0.00594       -1.06963       -2.05116
H         -1.67321       -1.46329       -2.58056
H         -1.32669        0.10311       -1.74706
S          2.65017       -0.03212        0.05484
O          2.51180        1.27814        0.67905
O          2.10452       -0.21795       -1.28243
O          2.08804       -1.15892        1.02422
H          1.09247       -1.21785        0.93221
C          4.36399       -0.49708        0.07514
H          4.89147        0.22947       -0.54371
H          4.72128       -0.45799        1.10379
H          4.45593       -1.49974       -0.34075
N         -2.82237       -0.01677        2.26597
H         -3.28370        0.88623        2.30744
H         -1.81766        0.12984        2.34304
H         -3.12263       -0.56440        3.06642
H         -2.51395        3.57964       -0.08350
H         -2.90538        1.86206        0.11663
H         -1.05389        2.50327        1.60969
H         -0.50469        1.33108        0.40288
H          0.14530        4.16688        0.45113
H          1.11402        2.85680        0.20247
H         -2.65661        2.56068       -2.24821
H         -1.05445        2.78192       -1.93961
C         -2.13991        2.55551       -0.25451
C         -0.84653        2.36220        0.53511
N         -1.88545        2.26356       -1.66117
N          0.19389        3.24787        0.02677
