42
2msa2eda_386.log	Energy: -1072752.7200073
S          2.61345        1.04955       -0.74047
O          3.90429        1.65501       -0.99819
O          2.10704        1.10581        0.64450
O          2.61240       -0.47013       -1.18068
H          2.60085       -1.10014       -0.37183
C          1.39958        1.71948       -1.84192
H          1.77739        1.59799       -2.85745
H          0.45276        1.18512       -1.71180
H          1.30214        2.77789       -1.59546
S         -2.06682       -0.93579       -1.14443
O         -1.39093        0.19023       -1.81851
O         -3.05153       -0.50459       -0.12201
O         -1.09285       -1.93492       -0.59299
H         -0.27079       -1.18943        0.61377
C         -2.98187       -1.81976       -2.39606
H         -3.71227       -1.13260       -2.82383
H         -2.27719       -2.15684       -3.15634
H         -3.47948       -2.66706       -1.92414
H         -2.48414        2.69020        2.77492
H         -0.76681        2.27125        2.97368
H         -0.97118        3.50937        0.96538
H         -0.66151        1.83948        0.48419
H         -2.49719        3.04869       -0.70333
H         -2.96819        1.63764       -0.07069
H         -2.37873        0.41428        3.36652
H         -2.63635        0.35139        1.74858
C         -1.66598        2.07776        2.37653
C         -1.41440        2.50836        0.93547
N         -1.96485        0.63517        2.46645
N         -2.65912        2.57567        0.17897
H          1.38472       -1.40961        3.07271
H         -0.04918       -2.39634        2.75619
H          1.86438       -3.67545        2.08562
H          0.94915       -3.21881        0.63569
H          3.35639       -1.78292        1.54353
H          3.31989       -2.89983        0.35840
H         -0.59850       -0.24795        1.97755
H          0.89369       -0.08284        1.16574
C          0.77225       -1.85406        2.28159
C          1.58047       -2.83338        1.44187
N          0.18800       -0.77385        1.46894
N          2.75834       -2.19490        0.82976
