42
2msa2eda_112.log	Energy: -1072767.3379910
S          2.98927        0.53953        0.05522
O          3.29768       -0.77299        0.63972
O          2.55683        1.57455        1.03513
O          2.00111        0.43913       -1.07329
C          4.49376        1.16402       -0.67331
H          5.23038        1.27364        0.12296
H          4.83678        0.44304       -1.41560
H          4.28132        2.12673       -1.13808
S         -2.67363       -0.52881       -0.17330
O         -3.27288        0.80720       -0.01269
O         -1.41487       -0.66494        0.66934
O         -2.40505       -0.94971       -1.56007
C         -3.80800       -1.71175        0.52969
H         -3.99231       -1.43802        1.56866
H         -4.73184       -1.67384       -0.04818
H         -3.34850       -2.69888        0.46369
H          0.25941       -3.81843       -1.31821
H          1.91094       -3.14395       -1.44331
H          1.67299       -4.28084        0.67759
H          1.80655       -2.54642        0.98423
H         -0.04055       -3.90574        2.14297
H         -0.55769       -2.52839        1.43463
H          1.11696       -0.96721       -1.15311
H         -0.13569       -1.66614       -2.03213
C          0.95814       -3.08329       -0.91344
C          1.14832       -3.32591        0.57797
N          0.38956       -1.72849       -1.15960
N         -0.14844       -3.44152        1.24894
H         -0.30282       -1.46002       -0.43108
H         -1.94451        2.21133        1.53262
H         -0.57246        3.18792        2.11628
H         -2.29579        4.41534        0.65500
H         -0.62091        4.56574        0.10038
H         -2.51643        2.60065       -1.00630
H         -1.85702        3.90634       -1.79334
H         -0.46799        0.83519        0.72624
H         -0.21050        1.96700       -0.44401
C         -1.05601        2.76953        1.23264
C         -1.44855        3.85945        0.23037
N         -0.13573        1.80636        0.57353
N         -1.71529        3.22911       -1.05550
H          0.87006        1.86689        0.84698
