34
2msa1a1eda_354.log	Energy: -988679.4743987
S          1.48499       -1.82574       -0.08869
O          1.40425       -3.27251       -0.18148
O          0.84331       -1.18445        1.06100
O          0.91550       -1.15088       -1.41978
H         -0.07000       -1.04050       -1.34497
C          3.17149       -1.30093       -0.21601
H          3.67902       -1.69887        0.66394
H          3.58664       -1.73887       -1.12402
H          3.22198       -0.20608       -0.24030
S         -2.50197       -0.38808        0.00257
O         -1.71891       -0.81693       -1.16584
O         -3.90150       -0.07373       -0.25131
O         -1.79689        0.84509        0.68768
H         -2.07194        1.70350        0.17962
C         -2.33829       -1.60361        1.27852
H         -2.75840       -2.52835        0.88103
H         -1.27355       -1.71523        1.49492
H         -2.89865       -1.26179        2.14817
N         -2.67142        2.88398       -0.71849
H         -2.74118        3.79856       -0.28415
H         -3.61212        2.55846       -0.93113
H         -2.17335        2.98813       -1.59752
H          2.46046        3.89537        0.06581
H          2.43161        3.02574       -1.47979
H          0.29332        2.76565       -0.25809
H          1.10538        1.21954       -0.49737
H          0.74321        2.59764        2.01743
H          0.76912        0.98898        1.67014
H          4.46637        2.55416       -0.22580
H          3.54773        1.92047        0.98440
C          2.44226        2.89119       -0.39205
C          1.16925        2.16844        0.04197
N          3.59617        2.07599       -0.02054
N          1.20835        1.88163        1.47316
