41
2msa1dma1tma_84.log	Energy: -1027940.3949949
S         -2.36130       -0.40343       -0.50108
O         -2.60406        1.04924       -0.22555
O         -2.96829       -1.30088        0.49183
O         -0.90649       -0.65781       -0.71276
C         -3.14616       -0.72857       -2.06874
H         -4.21192       -0.52827       -1.95661
H         -2.70477       -0.06878       -2.81580
H         -2.97629       -1.77471       -2.32404
S          0.67087        2.26601        0.13134
O          1.61088        1.56541       -0.73367
O          0.39736        1.66148        1.43792
O         -0.66719        2.59077       -0.60954
H         -1.44343        1.91982       -0.42249
C          1.27747        3.91964        0.38236
H          2.24722        3.83353        0.87339
H          1.38257        4.39606       -0.59218
H          0.56870        4.45952        1.00933
N          2.82700       -2.10876       -1.17173
C          3.87530       -1.09493       -1.10713
C          1.78472       -1.75163       -2.13195
H          3.24005       -2.99715       -1.43679
H          3.43462       -0.15071       -0.77217
H          4.64207       -1.39957       -0.38778
H          4.36165       -0.90942       -2.07930
H          1.29174       -0.83259       -1.80610
H          2.17665       -1.59171       -3.15059
H          1.02683       -2.53925       -2.16779
N          0.27332       -1.48131        1.58342
C          1.71024       -1.20359        1.83034
H          2.26886       -1.54311        0.95403
H          1.82721       -0.13080        1.97570
H          2.02003       -1.75272        2.72356
C         -0.58964       -1.04378        2.71155
H         -0.42710        0.02159        2.86761
H         -1.63018       -1.22271        2.43642
H         -0.31531       -1.61565        3.60146
C          0.04330       -2.90582        1.23740
H         -1.01018       -3.02871        0.98363
H          0.67398       -3.15124        0.38190
H          0.30997       -3.52698        2.09587
H         -0.03730       -0.95072        0.73378
