34
2msa1a1eda_127.log	Energy: -988701.7116840
S          0.95099       -2.00957        0.20137
O          1.63240       -1.08294        1.14842
O          1.44691       -1.91078       -1.17883
O         -0.54297       -1.86293        0.28803
C          1.28237       -3.65566        0.79439
H          2.36201       -3.80558        0.77542
H          0.89605       -3.74145        1.80980
H          0.78425       -4.35898        0.12709
S         -2.76442        0.60188       -0.15059
O         -3.72124        1.33948       -0.94625
O         -1.87149        1.36478        0.73719
O         -1.90059       -0.27911       -1.12616
H         -1.29323       -0.93183       -0.60937
C         -3.59903       -0.60073        0.86102
H         -4.19550       -0.05190        1.59029
H         -4.23524       -1.20360        0.21326
H         -2.84159       -1.21382        1.35201
N          2.25086        3.63429        1.82469
H          2.89537        3.23374        2.49988
H          1.59076        4.20707        2.34215
H          2.78909        4.25707        1.23006
H          0.63623        0.72128       -1.56286
H          0.56258        2.48777       -1.42761
H          2.64152        1.82537       -2.53967
H          3.01692        2.57976       -1.00166
H          3.49501        0.43522       -0.09142
H          2.98680       -0.32775       -1.42829
H         -0.11734        1.47474        0.58798
H          1.26286        0.55295        0.72052
C          1.09863        1.59412       -1.09577
C          2.58475        1.67897       -1.45560
N          0.89618        1.46839        0.37312
N          3.40625        0.53866       -1.09663
H          1.36071        2.24532        0.88813
