40
2msa1dma1eda_449.log	Energy: -1038013.3860586
S          1.57045       -1.36758       -0.73848
O          1.29224       -2.73890       -1.13555
O          1.33275       -1.00751        0.67304
O          0.80693       -0.36722       -1.67282
H          0.15384        0.26009       -1.18574
C          3.26072       -0.99153       -1.11404
H          3.87319       -1.70193       -0.55679
H          3.39905       -1.12962       -2.18665
H          3.46994        0.03947       -0.80109
S         -2.15322        1.40590       -0.37411
O         -2.88602        0.59743       -1.35526
O         -0.66251        1.33195       -0.52057
O         -2.54713        1.14312        1.04528
H         -1.67264       -0.05734        1.72035
C         -2.56114        3.11533       -0.67065
H         -2.29869        3.34622       -1.70320
H         -3.63238        3.23768       -0.50982
H         -1.99074        3.73249        0.02325
N          3.67807        1.87323        0.44591
C          3.86955        1.23872        1.74211
C          2.37528        2.51689        0.32756
H          4.41284        2.55321        0.28449
H          3.14359        0.42529        1.84585
H          4.87363        0.80835        1.80130
H          3.73482        1.92913        2.59298
H          1.58592        1.76627        0.41885
H          2.19879        3.28767        1.09806
H          2.27595        2.97867       -0.65799
H         -1.20607       -2.98049        2.10981
H         -2.62509       -2.13192        2.77232
H         -3.09883       -3.19945        0.53630
H         -3.34930       -1.44906        0.54090
H         -1.13313       -2.81588       -0.78134
H         -2.02098       -1.47845       -1.23371
H         -0.70916       -0.72839        2.94552
H         -0.29583       -0.94946        1.35110
C         -1.89504       -2.14477        1.95942
C         -2.58487       -2.22945        0.59590
N         -1.09389       -0.89257        2.01845
N         -1.61869       -1.98892       -0.45552
