40
2msa1dma1eda_511.log	Energy: -1038008.6850338
S          0.71844        2.21558       -0.21342
O          0.53535        3.61149        0.16037
O          0.32989        1.26581        0.89509
O          2.10299        1.88010       -0.68893
H          2.84181        0.70968       -0.08446
C         -0.35806        1.85132       -1.58400
H         -1.38033        2.02450       -1.24089
H         -0.08936        2.52590       -2.39747
H         -0.20771        0.80761       -1.86366
S          0.06828       -2.09614       -0.14806
O          1.02078       -3.07548        0.36610
O          0.49616       -1.31018       -1.30703
O         -0.33143       -1.12312        1.02219
H         -0.04956       -0.13658        0.86022
C         -1.47655       -2.89164       -0.48872
H         -1.29750       -3.60101       -1.29808
H         -1.78344       -3.41666        0.41660
H         -2.20893       -2.12369       -0.77351
N          3.54845       -0.00363        0.31899
C          3.82717       -1.04791       -0.69681
C          3.06758       -0.52854        1.62236
H          4.38837        0.55244        0.47599
H          2.88832       -1.54401       -0.94109
H          4.22742       -0.56518       -1.58848
H          4.54354       -1.76830       -0.29786
H          2.28150       -1.25995        1.43989
H          3.89477       -1.01192        2.14545
H          2.66758        0.30134        2.20465
H         -5.21303        0.56212        0.07352
H         -4.85791       -1.10264        0.56337
H         -3.92393        0.44467        2.19999
H         -2.61589       -0.39571        1.35501
H         -3.37426        2.39367        0.99323
H         -1.88449        1.73112        1.18583
H         -4.34937       -0.62346       -1.81404
H         -3.15664        0.37390       -1.29676
C         -4.40256       -0.17622        0.19434
C         -3.41200        0.34417        1.23141
N         -3.69612       -0.45478       -1.05655
N         -2.79975        1.58913        0.76790
