29
2msa1a1ma_145.log	Energy: -929290.1620143
S          1.88620       -0.23600       -0.00305
O          1.21246        0.09567        1.24753
O          1.02730       -0.31299       -1.20031
O          2.65631       -1.59885        0.14235
H          1.94641       -2.36829        0.18607
C          3.19154        0.90655       -0.31972
H          2.67425        1.86581       -0.45551
H          3.85650        0.91282        0.54371
H          3.70983        0.59382       -1.22567
S         -2.39915       -0.14699       -0.15072
O         -3.72405       -0.69770       -0.33666
O         -2.02656        1.12193       -0.75825
O         -1.36023       -1.26374       -0.66146
H         -0.51129       -0.82563       -0.95231
C         -2.04117       -0.06428        1.59024
H         -2.68192        0.71422        2.00666
H         -2.27849       -1.03064        2.03534
H         -0.98503        0.18184        1.71240
N          0.76871       -3.41524        0.22074
H         -0.11739       -2.92954        0.07191
H          0.70874       -3.90419        1.10891
H          0.85631       -4.11323       -0.51210
N          0.63908        2.93051       -0.59155
H          0.58121        3.69636       -1.25510
C          0.18914        3.37519        0.72818
H         -0.85059        3.73052        0.75323
H          0.28406        2.54300        1.43101
H          0.83791        4.18180        1.08340
H          0.00320        2.21286       -0.93365
