40
2msa1dma1eda_88.log	Energy: -1038032.5798602
S          2.76950        0.31227       -0.49680
O          3.34249        0.05070        0.83321
O          2.47958        1.73825       -0.79024
O          1.54374       -0.53202       -0.73558
H          0.99080       -1.12255        0.68549
C          3.96056       -0.21640       -1.71358
H          4.86212        0.38224       -1.58174
H          4.17316       -1.27240       -1.54660
H          3.53328       -0.05773       -2.70367
S         -2.42007       -0.91970       -0.81790
O         -3.79495       -1.39603       -0.90326
O         -1.92050       -0.78320        0.60237
O         -2.14094        0.33475       -1.57544
H         -0.84944        1.25751       -1.00041
C         -1.35617       -2.15792       -1.55166
H         -1.50166       -3.09801       -1.01639
H         -1.65480       -2.27571       -2.59386
H         -0.32205       -1.80946       -1.49264
N          0.48371       -1.51232        1.52404
C          0.76456       -0.66292        2.70237
C          0.87072       -2.92495        1.68563
H         -0.52381       -1.41283        1.25016
H          1.84375       -0.54012        2.80059
H          0.29601        0.31190        2.54942
H          0.33660       -1.12886        3.59206
H          1.94041       -2.97934        1.89413
H          0.30580       -3.37080        2.50596
H          0.65434       -3.45505        0.75753
H         -0.28024        3.74660        0.52638
H         -1.23032        3.62625       -0.97833
H         -2.65171        3.69388        1.15123
H         -2.94028        2.28298        0.12573
H         -2.15751        2.22063        2.77625
H         -2.17933        0.94090        1.72713
H          0.70621        1.97239       -0.72812
H         -0.19219        1.34005        0.50712
C         -0.96747        3.12034       -0.04747
C         -2.20704        2.76643        0.77974
N         -0.26329        1.86126       -0.37266
N         -1.82275        1.88240        1.88422
