42
2msa2eda_73.log	Energy: -1072767.7561822
S          2.94828        0.47983       -0.06048
O          3.08882       -0.99436       -0.24316
O          2.45073        0.87800        1.26697
O          2.13197        1.07831       -1.16496
C          4.59579        1.13943       -0.24050
H          4.96680        0.87850       -1.23161
H          4.54168        2.22151       -0.11931
H          5.22196        0.69815        0.53529
S         -2.48385       -0.64394       -0.44021
O         -2.12101       -1.45681       -1.61498
O         -3.18815        0.61628       -0.71022
O         -1.24604       -0.39605        0.41694
C         -3.53318       -1.65261        0.59071
H         -4.42051       -1.91038        0.01143
H         -2.97087       -2.54500        0.87361
H         -3.80682       -1.07333        1.47314
H         -0.52975       -3.68618       -0.72350
H          1.21273       -3.95617       -1.01400
H          0.83845       -4.56222        1.25128
H          1.64951       -2.99157        1.30013
H         -0.32780       -3.21821        2.78077
H         -0.57937       -2.01974        1.69676
H          0.35246       -1.83034       -1.87125
H         -0.01317       -1.32871       -0.36318
C          0.48023       -3.36432       -0.46060
C          0.70647       -3.49669        1.03970
N          0.63163       -1.95134       -0.89838
N         -0.45344       -3.02572        1.79333
H          1.61358       -1.60822       -0.74915
H         -0.37959        3.74664       -1.15587
H         -1.45464        2.36334       -1.49832
H         -2.71200        4.19456       -0.37027
H         -2.67379        2.70970        0.57853
H         -1.12357        5.14049        1.12705
H         -2.01635        4.23727        2.15782
H          0.76967        1.80574       -0.43484
H          0.16242        2.56063        0.94597
C         -0.99313        2.95876       -0.70943
C         -2.05715        3.53639        0.21507
N         -0.09877        2.08166        0.07888
N         -1.40739        4.19282        1.35038
H         -0.58091        1.18874        0.32667
