37
2msa1ma1eda_576.log	Energy: -1013343.8785995
S          2.15031       -0.63285       -1.05722
O          2.78428       -0.60134       -2.36986
O          0.84055        0.14582       -1.01429
O          2.99399       -0.11038        0.06502
H          2.45061        1.35193        0.43435
C          1.73537       -2.31120       -0.65348
H          1.15060       -2.71160       -1.48331
H          2.67436       -2.85744       -0.55436
H          1.15502       -2.31840        0.27846
S         -2.44210        0.31855       -0.66795
O         -2.06136        1.72813       -0.66187
O         -2.55344       -0.34769        0.62938
O         -1.50186       -0.49627       -1.62947
H         -0.51073       -0.27793       -1.44045
C         -3.98118        0.12256       -1.53291
H         -3.88681        0.58912       -2.51284
H         -4.19297       -0.94265       -1.62114
H         -4.74488        0.62086       -0.93522
N         -0.29856       -2.17457        1.94867
H          0.09187       -1.51517        2.61479
C         -0.60440       -3.45053        2.58605
H         -1.34830       -3.39317        3.39477
H         -0.98091       -4.15028        1.83375
H          0.31227       -3.88087        3.00035
H         -1.13602       -1.75018        1.55778
H         -0.62211        2.67837        0.95197
H         -0.36238        2.86953        2.69083
H          1.40333        3.98972        1.44692
H          2.08979        2.63564        2.38694
H          1.29366        2.14265       -0.40026
H          2.73148        2.91575       -0.08836
H         -0.92666        0.63849        2.21372
H          0.27077        0.44699        1.15707
C          0.02034        2.37357        1.79315
C          1.42534        2.90382        1.56326
N          0.02566        0.93529        2.01896
N          2.01099        2.32098        0.31655
