30
2msa1eda_54.log	Energy: -953204.8484674
S          2.30347       -0.70915       -0.15258
O          3.15478        0.29125        0.50696
O          2.03702       -0.51330       -1.57708
O          0.99322       -0.83108        0.64351
C          3.07543       -2.30439        0.05100
H          4.02705       -2.27816       -0.48072
H          3.23273       -2.47951        1.11507
H          2.41853       -3.06134       -0.37824
S         -2.28432       -0.69196        0.00476
O         -2.43236        0.07980       -1.22484
O         -2.06535        0.06727        1.23925
O         -1.17553       -1.78842       -0.14820
H         -0.23902       -1.42014        0.11794
C         -3.71298       -1.72803        0.19911
H         -4.57606       -1.06632        0.27707
H         -3.79373       -2.36487       -0.68148
H         -3.59055       -2.31897        1.10596
H          0.88951        3.64140        0.85999
H          2.01760        2.33507        0.36383
H          0.67478        3.20114       -1.59114
H          0.34290        1.50666       -1.27093
H         -1.47773        3.71538       -0.90758
H         -1.80003        2.10026       -1.08015
H          0.55799        1.89270        2.38368
H         -0.71264        1.77811        1.29277
C          0.97058        2.62989        0.45355
C          0.21405        2.51756       -0.86942
N          0.31118        1.70183        1.41606
N         -1.20038        2.78371       -0.62852
H          0.56987        0.70311        1.20396
