40
2msa1dma1eda_331.log	Energy: -1038016.5083136
S         -0.52855        1.96661       -0.20978
O         -1.95894        1.81131        0.07854
O         -0.05442        1.07830       -1.31938
O          0.34393        1.81463        0.99502
C         -0.26934        3.63047       -0.79346
H         -0.85503        3.76025       -1.70355
H         -0.60522        4.31773       -0.01683
H          0.79303        3.76528       -0.99733
S          2.79361       -0.80815       -0.12344
O          3.86438       -1.69974       -0.51387
O          2.03071       -1.11251        1.08737
O          1.81673       -0.70129       -1.36272
H          1.08339       -0.01816       -1.24547
C          3.41802        0.85186        0.04456
H          4.16239        0.83198        0.84159
H          3.87712        1.14143       -0.90057
H          2.58143        1.50117        0.31362
N         -2.07848       -1.24141       -1.56755
C         -3.43180       -0.80019       -1.87069
C         -1.55830       -2.20123       -2.53135
H         -1.46555       -0.42922       -1.54262
H         -4.13232       -1.63415       -1.74385
H         -3.71252       -0.00145       -1.17941
H         -3.54283       -0.42060       -2.90028
H         -2.11998       -3.13995       -2.46058
H         -1.62622       -1.84529       -3.57283
H         -0.50982       -2.41252       -2.30667
H         -1.55555       -1.10476        3.87522
H         -1.76022        0.59171        3.35957
H         -3.50293       -1.05243        2.38239
H         -2.61892       -0.08893        1.18989
H         -2.37978       -2.93667        1.58577
H         -2.03833       -1.97779        0.24541
H          0.57269       -0.59166        3.08665
H         -0.19141       -1.28421        1.78370
C         -1.54362       -0.42273        3.02095
C         -2.51912       -0.89180        1.92694
N         -0.18764       -0.46476        2.42362
N         -1.96841       -2.06835        1.26965
H          0.03309        0.39067        1.85644
