42
2msa2eda_291.log	Energy: -1072755.1109125
S          0.59262        2.26140        0.71370
O          1.68246        1.68293        1.51292
O         -0.76095        2.06628        1.28971
O          0.63515        1.78649       -0.71805
C          0.85044        4.02283        0.63048
H          0.80873        4.41612        1.64633
H          1.83010        4.19975        0.18638
H          0.06208        4.45633        0.01520
S          2.54116       -1.19222       -0.78449
O          3.23181       -2.14106       -1.63071
O          1.22071       -1.57600       -0.25830
O          2.39931        0.15284       -1.58792
H          1.71466        0.79342       -1.18642
C          3.56635       -0.75389        0.59830
H          3.67817       -1.64960        1.21058
H          4.53047       -0.43142        0.20482
H          3.06889        0.05017        1.14632
H         -1.55682       -1.60729        2.75536
H         -2.97311       -1.27491        1.70534
H         -2.52886       -3.66007        1.72552
H         -2.17460       -3.02510        0.11708
H         -0.48434       -4.58124        1.24435
H          0.17078       -3.20043        0.65843
H         -1.13336        0.29611        1.32357
H         -0.16681       -0.95188        0.81145
C         -1.93906       -1.62490        1.73268
C         -1.82812       -3.03353        1.16534
N         -1.14840       -0.66349        0.92947
N         -0.48693       -3.57313        1.33889
H         -1.51890       -0.53821       -0.04961
H         -4.51153        0.24142       -2.40989
H         -5.06492        1.18927       -1.02706
H         -2.99400        2.09918       -2.00961
H         -2.78008        1.64472       -0.31343
H         -1.90488       -0.03470       -2.56009
H         -0.95265        0.85109       -1.55704
H         -5.20192       -1.04100       -0.37947
H         -3.69067       -1.39021       -0.87905
C         -4.27962        0.50577       -1.36399
C         -2.94850        1.24508       -1.31872
N         -4.26759       -0.65825       -0.47566
N         -1.83479        0.33796       -1.61730
