42
2msa2eda_348.log	Energy: -1072751.9129360
S          0.18405        2.09651        0.66081
O          1.55095        2.42292        1.07914
O         -0.67671        1.51039        1.72264
O          0.15632        1.21680       -0.56603
C         -0.61177        3.61126        0.16262
H         -0.63566        4.27690        1.02575
H         -0.02650        4.04977       -0.64585
H         -1.62293        3.37653       -0.17151
S          3.08948       -0.74326       -0.58464
O          3.95840       -1.60087       -1.36034
O          2.23311       -1.37394        0.43363
O          2.18618        0.05633       -1.59767
H          1.41543        0.54519       -1.14719
C          4.03832        0.52221        0.22326
H          4.66973        0.02661        0.96167
H          4.64572        1.01468       -0.53620
H          3.34418        1.22387        0.69366
H         -2.16856       -1.43697        0.42837
H         -0.76680       -1.13735       -0.61217
H         -1.49326       -3.53584       -0.72427
H          0.13257       -3.40187       -0.03766
H         -2.32766       -3.86896        1.48565
H         -0.93932       -4.73845        1.50510
H         -0.56566       -0.21186        1.68347
H         -0.52211       -1.84158        2.21767
C         -1.11434       -1.67806        0.26778
C         -0.92421       -3.18157        0.14467
N         -0.33587       -1.20090        1.44006
N         -1.31736       -3.80352        1.41159
H          0.67327       -1.23066        1.20811
H         -5.34453        0.49224       -1.40286
H         -5.24637        0.40736        0.36292
H         -3.71936        2.10671       -0.53159
H         -2.82874        0.83283        0.29834
H         -2.95749        1.20587       -2.59445
H         -1.64817        0.97219       -1.61861
H         -5.17490       -1.79916       -0.67058
H         -3.77444       -1.38112       -1.41965
C         -4.69651        0.19504       -0.56041
C         -3.42904        1.04516       -0.59210
N         -4.34317       -1.22436       -0.59014
N         -2.62299        0.72359       -1.76763
