40
2msa1dma1eda_537.log	Energy: -1038005.8561270
S          0.50134        2.22690       -0.17034
O          0.66900        3.59171        0.31926
O          0.11080        1.26673        0.91711
O          1.69888        1.70076       -0.91582
H          2.88577        1.27684       -0.09758
C         -0.81695        2.19625       -1.36420
H         -1.72058        2.55443       -0.86937
H         -0.53951        2.86031       -2.18303
H         -0.93780        1.16762       -1.70608
S         -0.72443       -2.04009       -0.19741
O          0.13417       -3.19627       -0.40235
O         -0.93830       -1.11643       -1.30835
O         -0.14697       -1.23372        1.03801
H         -0.10455       -0.22313        0.87962
C         -2.29541       -2.59795        0.41271
H         -2.71710       -3.24599       -0.35736
H         -2.11493       -3.16355        1.32717
H         -2.94746       -1.73379        0.59369
N         -4.18318        0.13414        0.54820
C         -4.11287        0.37075       -0.88729
C         -3.35155        1.05442        1.31240
H         -5.14524        0.20506        0.86005
H         -3.10920        0.12024       -1.24526
H         -4.82315       -0.28029       -1.40449
H         -4.32857        1.41660       -1.16840
H         -2.29630        0.89058        1.07506
H         -3.57514        2.11682        1.11140
H         -3.48268        0.87073        2.38191
H          3.80014       -0.74460        1.91496
H          2.14738       -0.13329        1.61436
H          2.50192       -2.35253        0.47212
H          2.18307       -1.05645       -0.66769
H          4.77104       -2.31407       -0.19605
H          4.05687       -1.90206       -1.60311
H          4.01551        1.50263        1.17285
H          4.41950        0.49358       -0.11267
C          3.09840       -0.39758        1.15114
C          2.91789       -1.43424        0.04856
N          3.66488        0.81906        0.50660
N          4.20014       -1.60563       -0.64492
