34
2msa1a1eda_282.log	Energy: -988693.7693468
S          2.02546       -1.09377       -0.37207
O          3.16921       -0.15013       -0.34851
O          1.23649       -1.05357       -1.62192
O          1.15104       -0.93455        0.83319
C          2.72438       -2.73358       -0.24762
H          3.38640       -2.88275       -1.10100
H          3.28055       -2.80157        0.68749
H          1.91055       -3.45919       -0.26441
S         -2.59724       -0.54308        0.28733
O         -1.88218        0.19890        1.31675
O         -3.18027        0.16920       -0.83441
O         -3.80492       -1.32552        1.04391
H         -3.76994       -1.08744        1.98133
C         -1.63717       -1.90046       -0.31669
H         -0.82727       -1.49229       -0.93116
H         -1.21369       -2.42286        0.54024
H         -2.30153       -2.53461       -0.90418
N          3.13589        1.82073        1.91949
H          3.83992        2.54887        1.86093
H          3.35266        1.11157        1.20978
H          3.23185        1.37739        2.82754
H          1.13533        3.33852       -0.52521
H          1.72637        1.72568       -1.00261
H         -0.14794        2.47282       -2.48791
H         -0.57728        1.03608       -1.57959
H         -1.65282        3.70454       -1.21267
H         -2.36020        2.23844       -0.95925
H          1.37810        2.03069        1.39212
H         -0.32684        2.15227        1.05132
C          0.87057        2.28064       -0.61367
C         -0.37008        2.10547       -1.47863
N          0.58302        1.78443        0.75612
N         -1.50551        2.77282       -0.84476
H          0.54933        0.74036        0.78474
