44
2msa2tma_73.log	Energy: -1052594.2751089
S          1.98382       -1.67065       -0.79943
O          2.14164       -2.92611       -1.51256
O          1.90091       -1.70939        0.65958
O          0.72841       -0.86830       -1.36121
H         -0.14053       -1.21826       -0.95409
C          3.27021       -0.54807       -1.28243
H          4.20955       -1.02037       -0.99114
H          3.22748       -0.42862       -2.36523
H          3.12547        0.40134       -0.75328
S         -1.94520       -1.18264        0.95900
O         -1.52151       -1.61807       -0.41539
O         -3.37230       -1.39461        1.20184
O         -1.51417        0.24744        1.17146
H         -2.00787        1.05211       -0.04715
C         -1.00560       -2.14460        2.11934
H         -1.28965       -3.18814        1.98075
H          0.05485       -2.00146        1.90380
H         -1.26403       -1.80367        3.12215
N          2.53274        2.03729        0.68660
C          2.67775        1.34505        1.95959
H          2.17471        0.37664        1.90772
H          3.73874        1.16831        2.16000
H          2.25668        1.92632        2.80126
C          3.26067        3.29255        0.67422
H          4.32121        3.10941        0.87014
H          3.17190        3.76530       -0.30921
H          2.88810        4.00600        1.43483
C          1.13399        2.23285        0.35666
H          1.05837        2.67776       -0.64377
H          0.60983        1.27297        0.36199
H          0.62211        2.90302        1.07660
N         -2.43578        1.57575       -0.88767
C         -3.85312        1.13900       -0.96081
H         -3.87913        0.05679       -1.09028
H         -4.34567        1.38589       -0.02039
H         -4.34214        1.64267       -1.79824
C         -2.31577        3.02202       -0.60255
H         -2.81382        3.23560        0.34366
H         -1.25962        3.27868       -0.52028
H         -2.77935        3.59448       -1.40967
C         -1.67768        1.17735       -2.09915
H         -0.62115        1.39695       -1.94453
H         -1.79461        0.10285       -2.23769
H         -2.06446        1.72427       -2.96258
