40
2msa1dma1eda_451.log	Energy: -1038012.6754795
S          2.46997       -0.10039       -0.50061
O          3.16837       -1.36597       -0.63759
O          1.84307        0.20309        0.79947
O          1.42366        0.07764       -1.64624
H          0.45031        0.23869       -1.31406
C          3.61115        1.21874       -0.84273
H          4.40604        1.15908       -0.09891
H          4.00960        1.07180       -1.84652
H          3.07847        2.16649       -0.76387
S         -2.13349       -0.15839       -0.85850
O         -2.07075       -1.34808       -1.71269
O         -0.86784        0.65330       -0.86331
O         -2.55505       -0.43360        0.54848
H         -1.26991       -0.72979        1.52890
C         -3.37536        0.93300       -1.52118
H         -3.10523        1.16458       -2.55160
H         -4.33319        0.41389       -1.48142
H         -3.39871        1.83687       -0.91192
N          0.26670        2.95387        1.21785
C         -0.38439        3.71730        0.16625
C         -0.67767        2.46951        2.20746
H          0.73991        2.15100        0.81481
H         -0.80331        4.63687        0.59104
H          0.35254        4.00631       -0.58859
H         -1.19246        3.16390       -0.34003
H         -1.16711        3.31900        2.69711
H         -1.46751        1.82078        1.78634
H         -0.13579        1.92086        2.98724
H          0.76858       -2.66159        2.53995
H         -0.96297       -2.77937        2.93871
H         -0.34099       -4.21457        0.96525
H         -1.56366       -2.99789        0.57885
H          1.21174       -2.92705       -0.31737
H         -0.19354       -2.46445       -1.08144
H         -0.30020       -0.48438        2.89502
H          0.39999       -0.63560        1.39571
C         -0.24393       -2.45595        2.18229
C         -0.50990       -3.13613        0.83745
N         -0.36440       -0.98333        2.01084
N          0.29523       -2.51407       -0.19436
