43
2msa1eda1tma_138.log	Energy: -1062678.8070381
S         -0.40660        2.25860       -0.30731
O         -0.73378        1.45569       -1.49434
O          0.93914        1.93610        0.26971
O         -1.45443        2.20689        0.75121
C         -0.31597        3.96666       -0.81195
H          0.45558        4.04975       -1.57781
H         -1.28845        4.25281       -1.21285
H         -0.06264        4.56901        0.06041
S          2.78481       -0.92295       -0.42994
O          1.62322       -1.60343       -0.99447
O          3.01186       -1.07938        1.00297
O          2.78742        0.59911       -0.83276
H          2.00804        1.12221       -0.41763
C          4.24104       -1.42811       -1.31584
H          4.37082       -2.49431       -1.12786
H          4.08142       -1.23899       -2.37683
H          5.09104       -0.86262       -0.93546
H         -0.53473       -2.03552        1.68264
H          0.06914       -0.74944        0.63496
H          1.24242       -0.70433        2.83273
H          0.30586        0.76577        2.57882
H         -0.36966       -1.41729        4.40051
H         -0.45315        0.19243        4.64809
H         -2.35441       -0.88720        0.64087
H         -2.30161       -0.52277        2.34969
C         -0.46016       -0.95006        1.56599
C          0.22383       -0.30920        2.76257
N         -1.83881       -0.41035        1.44458
N         -0.60104       -0.53405        3.95803
H         -1.78713        0.61411        1.22625
N         -2.87866       -1.51694       -0.88245
C         -3.58244       -0.40427       -1.52280
H         -4.47506       -0.14929       -0.94267
H         -2.91883        0.46338       -1.56420
H         -3.89422       -0.66049       -2.54889
C         -1.63838       -1.82249       -1.60460
H         -1.01372       -0.92802       -1.65789
H         -1.08182       -2.60207       -1.07752
H         -1.84703       -2.17112       -2.62924
C         -3.73170       -2.69422       -0.77643
H         -3.19429       -3.49642       -0.26181
H         -4.63171       -2.45265       -0.20264
H         -4.04228       -3.06754       -1.76690
