28
2msa1dma_14.log	Energy: -918472.0422864
S         -2.15525       -0.78284        0.14970
O         -2.81806        0.52512        0.30219
O         -1.89922       -1.54686        1.36505
O         -0.87389       -0.56497       -0.67189
C         -3.18024       -1.78049       -0.91723
H         -4.13271       -1.93064       -0.40792
H         -3.32564       -1.25257       -1.85947
H         -2.67947       -2.73541       -1.07773
S          2.37593       -0.34198        0.00182
O          2.19366       -0.03755        1.41435
O          2.25015        0.79900       -0.91939
O          1.44146       -1.51223       -0.45876
H          0.44904       -1.21514       -0.48974
C          3.95475       -1.10937       -0.25038
H          4.70860       -0.38755        0.06468
H          3.99815       -2.00799        0.36446
H          4.06054       -1.34654       -1.30835
N         -0.20341        2.03175       -0.18612
C         -1.03076        2.96920       -0.97282
C         -0.27885        2.23488        1.28225
H         -0.52221        1.05285       -0.39998
H         -0.74066        3.99613       -0.74455
H         -0.88004        2.76544       -2.03309
H         -2.07420        2.79397       -0.70876
H          0.04920        3.24848        1.51899
H         -1.31250        2.07384        1.58870
H          0.37412        1.50350        1.76041
H          0.77860        2.03100       -0.49247
