35
2msa1ma1dma_109.log	Energy: -978625.8565604
S         -2.36099       -0.01330       -0.23254
O         -2.18378       -1.43929        0.04286
O         -1.76619        0.49464       -1.46558
O         -1.89632        0.84674        0.99384
H         -0.84996        0.91015        1.02974
C         -4.09831        0.35708       -0.21167
H         -4.55035       -0.20113       -1.03206
H         -4.50923        0.03750        0.74555
H         -4.22533        1.42920       -0.35780
S          1.46048        1.78104        0.17250
O          2.52850        2.44350        0.91074
O          0.58182        0.92684        1.07401
O          1.90913        0.97378       -0.99474
H          1.44628       -0.64656       -1.05679
C          0.36319        3.02315       -0.48765
H         -0.03183        3.60689        0.34454
H          0.95239        3.65598       -1.15186
H         -0.43456        2.51897       -1.03614
N          1.30519       -1.84503        1.80549
H          2.12566       -2.07313        2.35796
C          0.12523       -2.56410        2.30571
H         -0.08345       -2.36675        3.36405
H         -0.74582       -2.26647        1.71735
H          0.27168       -3.64029        2.17688
H          1.16198       -0.83497        1.88131
N          1.53799       -1.68482       -0.95291
C          2.91402       -2.03200       -1.35544
C          0.48254       -2.40732       -1.68886
H          1.44307       -1.85192        0.10023
H          3.04709       -1.82845       -2.41921
H          3.60578       -1.41289       -0.78394
H          3.09717       -3.08952       -1.15432
H          0.52858       -2.14093       -2.74627
H          0.63917       -3.48196       -1.57161
H         -0.48777       -2.12915       -1.27678
