34
2msa1a1eda_45.log	Energy: -988712.9969335
S         -2.34618       -0.78896       -0.05431
O         -2.46179       -0.29471        1.34633
O         -1.04796       -1.43793       -0.31794
O         -2.64476        0.28379       -1.05432
H         -1.19747        0.91776       -1.54163
C         -3.62877       -2.00914       -0.25948
H         -4.59075       -1.52489       -0.09122
H         -3.56480       -2.40292       -1.27390
H         -3.46132       -2.79957        0.47245
S          2.62699       -0.69265       -0.12716
O          4.07427       -0.58781       -0.27636
O          1.90421        0.54988       -0.60198
O          2.17120       -1.05871        1.24462
H          0.80284       -0.52984        1.95018
C          2.05005       -1.99910       -1.19733
H          2.34271       -1.75476       -2.21945
H          2.53762       -2.92050       -0.87699
H          0.96650       -2.07418       -1.09342
N          0.05570       -0.00066        2.48096
H          0.12779       -0.20614        3.47268
H         -0.89588       -0.23187        2.12327
H          0.24030        1.01110        2.29477
H          0.43998        3.40123       -1.38095
H         -1.32977        3.27911       -1.55686
H         -1.03371        3.67122        0.75602
H         -1.35496        1.95736        0.62731
H          1.26685        1.86580        0.63417
H          1.10814        3.31694        1.38784
H         -0.15647        1.51808       -2.72136
H          0.51245        0.93510       -1.30010
C         -0.44445        2.81682       -1.11349
C         -0.60620        2.72763        0.40641
N         -0.30832        1.46024       -1.71671
N          0.61860        2.45804        1.16451
