42
2msa2eda_567.log	Energy: -1072741.8690132
S          0.80423       -1.07056       -1.17445
O          1.48269       -0.11669       -2.06492
O          0.16057       -0.38646       -0.00478
O          1.71890       -2.16478       -0.70776
H          3.13462       -1.67294       -0.31491
C         -0.50267       -1.88057       -2.06558
H         -0.06990       -2.32673       -2.96095
H         -0.93247       -2.64436       -1.41685
H         -1.25946       -1.13425       -2.30843
S         -3.32699       -0.70970        0.58661
O         -4.34203       -1.69815        0.89019
O         -3.07363       -0.33523       -0.80226
O         -1.96854       -1.22605        1.23673
H         -1.16403       -0.88724        0.74224
C         -3.66045        0.76995        1.51587
H         -2.86813        1.49324        1.30028
H         -4.62622        1.14676        1.17518
H         -3.70570        0.50413        2.57193
H          4.85598        0.66761        0.40965
H          3.30349        0.66795       -0.47077
H          3.01323        1.30064        1.94649
H          2.12032       -0.15489        1.51411
H          4.54709       -0.05718        3.13411
H          3.20826       -0.97565        3.32048
H          4.76359       -1.39303       -0.72880
H          4.36421       -1.69707        0.87911
C          3.87248        0.19653        0.33030
C          3.12598        0.25090        1.65970
N          4.07116       -1.24470        0.00070
N          3.84025       -0.58404        2.63279
H         -0.43491        3.43448       -1.96081
H         -1.31116        4.40172       -0.76381
H          1.09891        4.50514       -0.36512
H          0.28616        3.72527        0.99345
H          0.99702        1.62496        0.19017
H          1.63326        2.24671       -1.14725
H         -2.36118        2.25878       -1.03542
H         -1.01770        1.47561       -0.59765
C         -0.71975        3.48765       -0.89515
C          0.55707        3.60173       -0.06115
N         -1.52614        2.34778       -0.46521
N          1.46176        2.45757       -0.16579
