40
2msa1dma1eda_414.log	Energy: -1038013.4255729
S          1.82751       -1.78267       -0.57479
O          2.84081       -2.72289       -0.99936
O          1.85189       -0.59235       -1.62090
O          1.95084       -1.22088        0.78590
H          1.70857        0.38384        1.32631
C          0.20564       -2.47523       -0.72982
H          0.00673       -2.64771       -1.78679
H          0.21089       -3.41587       -0.17744
H         -0.50803       -1.78292       -0.27150
S         -0.96737        1.69730       -0.92062
O         -1.31991        2.01954        0.47729
O         -1.64876        0.54836       -1.52184
O          0.54674        1.57815       -1.04489
H          1.24149        0.18002       -1.40467
C         -1.38139        3.12672       -1.90362
H         -2.45958        3.27224       -1.83104
H         -0.85021        3.99116       -1.50555
H         -1.08885        2.92873       -2.93472
N          1.75113        1.42348        1.36572
C          3.16721        1.81357        1.19940
C          1.09521        1.94691        2.58091
H          1.21776        1.69968        0.50697
H          3.74237        1.46218        2.05706
H          3.54732        1.34853        0.28965
H          3.23616        2.89934        1.11989
H          1.56151        1.50401        3.46239
H          1.20608        3.03184        2.60685
H          0.03514        1.70087        2.53015
H         -3.97317       -0.42637        0.95998
H         -4.47425       -2.10043        1.22315
H         -2.94060       -1.42859        2.95264
H         -2.21715       -2.70959        1.95680
H         -1.59310        0.14131        1.53339
H         -0.62468       -0.94966        2.31617
H         -3.98801       -1.98961       -1.02130
H         -2.60686       -1.15354       -0.81388
C         -3.62662       -1.47437        0.92253
C         -2.52309       -1.65700        1.95781
N         -3.18785       -1.88422       -0.40737
N         -1.35562       -0.84451        1.62155
