38
2msa2dma_57.log	Energy: -1003286.8889268
S          2.79873        0.37563       -0.18028
O          1.95623        1.50525       -0.58227
O          2.92353       -0.74646       -1.09768
O          2.37255       -0.11718        1.25007
H          1.44872       -0.60961        1.24171
C          4.41950        0.99865        0.20279
H          4.82841        1.40190       -0.72422
H          4.32688        1.77955        0.95687
H          5.02881        0.17119        0.56493
S         -0.55488       -1.77302        0.09436
O         -1.91451       -2.23356        0.41523
O          0.13903       -1.22214        1.31816
O         -0.49102       -0.79722       -1.02090
H         -0.35539        0.96041       -0.40059
C          0.41356       -3.17894       -0.41130
H          0.43850       -3.89239        0.41252
H         -0.06360       -3.61647       -1.28849
H          1.41296       -2.81575       -0.65909
N         -3.35864        0.38986        0.04779
C         -3.68933        0.25638       -1.37116
C         -4.47400        0.86988        0.85587
H         -3.05592       -0.52986        0.37979
H         -3.90467        1.24419       -1.79521
H         -2.82893       -0.17627       -1.88775
H         -4.56496       -0.38644       -1.53988
H         -4.72684        1.89577        0.56565
H         -5.37742        0.25283        0.74156
H         -4.18873        0.87231        1.91108
N         -0.93269        1.71604        0.00844
C         -0.93345        2.86998       -0.90653
C         -0.46713        2.01790        1.37627
H         -1.91209        1.27246        0.06223
H          0.08371        3.25155       -1.00245
H         -1.29080        2.53876       -1.88235
H         -1.59659        3.64371       -0.51370
H          0.54455        2.42105        1.32649
H         -1.14833        2.73974        1.83229
H         -0.46197        1.08590        1.94321
