43
2msa1eda1tma_212.log	Energy: -1062673.0413932
S          0.31581       -1.43297        1.00605
O         -0.55232       -2.60759        1.09777
O          0.18767       -0.69937       -0.30525
O          1.77206       -1.70605        1.23267
H          2.56373       -1.06188        0.02465
C         -0.17085       -0.29257        2.28138
H         -1.23515       -0.09143        2.15680
H          0.03529       -0.76711        3.24114
H          0.39470        0.63223        2.16164
S         -3.24155       -0.05997       -0.56327
O         -4.33544        0.49240       -1.33489
O         -2.80541        0.62774        0.65368
O         -2.00633       -0.20407       -1.54408
H         -1.16016       -0.41506       -1.02865
C         -3.60419       -1.74747       -0.12827
H         -4.43749       -1.72535        0.57517
H         -3.88241       -2.27609       -1.03990
H         -2.71517       -2.18833        0.33129
H          1.15339        4.57279       -0.07939
H          1.83986        3.42730       -1.23634
H         -0.57093        3.11845       -1.12652
H          0.22821        1.68463       -0.46619
H         -1.02523        3.77742        1.13613
H         -1.41896        2.19638        1.03782
H          2.98582        3.56795        1.00425
H          1.67951        2.78685        1.60441
C          1.35705        3.50354       -0.25334
C          0.03356        2.74632       -0.28588
N          2.23904        2.92433        0.76452
N         -0.63687        2.84740        1.00963
N          3.22241       -0.83627       -0.78256
C          4.57787       -0.79677       -0.18984
H          4.61591        0.02177        0.52928
H          4.76448       -1.74111        0.32252
H          5.31888       -0.64040       -0.97738
C          3.05723       -1.95331       -1.74140
H          3.30670       -2.88858       -1.23944
H          2.01220       -1.97993       -2.05113
H          3.71099       -1.79458       -2.60227
C          2.84225        0.46948       -1.37702
H          1.83897        0.37393       -1.78961
H          2.83505        1.22790       -0.58596
H          3.56233        0.72118       -2.16066
