40
2msa1dma1eda_38.log	Energy: -1038036.5756962
S         -2.79865       -0.57797       -0.13582
O         -2.62985       -1.63054       -1.14786
O         -3.03740        0.78430       -0.63641
O         -1.63309       -0.59101        0.84132
C         -4.22055       -1.02304        0.85109
H         -5.08837       -1.03634        0.19084
H         -4.05222       -2.01019        1.28186
H         -4.34689       -0.27521        1.63420
S          2.97157        0.12329       -0.15437
O          2.15909        0.17190        1.10736
O          2.90291        1.37382       -0.91938
O          2.63365       -1.10195       -0.93631
C          4.66489       -0.08911        0.36739
H          4.94429        0.77344        0.97273
H          4.73879       -1.00958        0.94659
H          5.28512       -0.14658       -0.52748
N          0.38498       -2.30458        0.00969
C         -0.08424       -3.33847       -0.93675
C          0.85990       -2.83434        1.30508
H          1.18127       -1.77452       -0.42192
H         -0.89587       -3.90358       -0.47784
H         -0.46760       -2.84636       -1.82856
H          0.75135       -3.99576       -1.18357
H          0.02777       -3.31409        1.82272
H          1.65800       -3.55645        1.12446
H          1.24441       -1.99647        1.88702
H         -0.38812       -1.63119        0.20977
H          0.84741        2.66669       -0.80259
H         -0.41226        1.51830       -1.28584
H         -1.19879        3.89304       -1.54956
H         -2.18518        2.94833       -0.42495
H         -0.19196        4.97110        0.32783
H         -1.75402        4.85124        0.79945
H          0.81265        1.21924        0.96718
H         -0.24784        2.46234        1.45733
C         -0.15416        2.29905       -0.56968
C         -1.20220        3.40462       -0.56728
N         -0.10114        1.69637        0.78954
N         -0.93242        4.31403        0.55092
H         -0.83298        0.96238        0.90338
