35
2msa1ma1dma_221.log	Energy: -978620.1383050
S         -2.26542       -0.65689       -0.38912
O         -0.96405       -1.40358       -0.42512
O         -2.26487        0.56898       -1.19380
O         -2.67014       -0.45264        1.03608
H         -1.35208       -0.70151        1.95878
C         -3.47225       -1.76161       -1.09200
H         -3.20149       -1.93738       -2.13320
H         -3.46001       -2.69246       -0.52544
H         -4.44673       -1.27765       -1.02410
S          2.44214       -0.92219       -0.26291
O          3.58390       -1.65821       -0.75852
O          1.84075       -1.35524        1.01016
O          1.32987       -0.88142       -1.37403
H          0.38873       -1.04064       -1.01358
C          2.87971        0.79056       -0.08961
H          3.63918        0.84857        0.69124
H          3.28708        1.13092       -1.04190
H          1.97675        1.35259        0.17041
N         -0.40793       -0.72716        2.43621
H         -0.46279       -1.29319        3.27959
C          0.04961        0.65480        2.71611
H          1.02853        0.62051        3.19393
H          0.12217        1.18264        1.76062
H         -0.67486        1.15129        3.36159
H          0.26518       -1.16863        1.78017
N         -0.08337        2.43776       -0.26234
C          0.53406        2.72798       -1.55131
C         -0.46749        3.65003        0.44668
H         -0.91687        1.88090       -0.44946
H          1.48854        3.24706       -1.39997
H          0.73096        1.79023       -2.07707
H         -0.09548        3.36235       -2.19579
H          0.42890        4.21323        0.73227
H         -1.10944        4.31816       -0.15095
H         -1.01027        3.39050        1.36087
