34
2msa1a1eda_219.log	Energy: -988699.6276497
S         -1.85878       -1.40095        0.05906
O         -2.85854       -0.76763       -0.81123
O         -1.95088       -1.09501        1.49213
O         -0.45840       -1.10212       -0.47689
C         -2.03127       -3.16749       -0.11868
H         -3.02788       -3.43612        0.23284
H         -1.91283       -3.42050       -1.17216
H         -1.26777       -3.65220        0.49009
S          2.73526       -0.10811       -0.11099
O          3.77844        0.52568        0.66605
O          2.10865        0.62418       -1.21148
O          1.61617       -0.58339        0.90082
H          0.74829       -0.81810        0.41461
C          3.34434       -1.64820       -0.76835
H          4.12820       -1.40838       -1.48753
H          3.74429       -2.23593        0.05759
H          2.51641       -2.16391       -1.25627
N         -0.24213        1.17175        2.72018
H          0.69646        0.80994        2.57332
H         -0.88215        0.41108        2.48882
H         -0.34438        1.37136        3.70943
H         -1.76623        2.99925       -2.13894
H         -2.57667        1.42020       -1.85481
H         -2.85940        3.12943        0.05794
H         -2.20974        1.56183        0.52873
H         -0.79448        4.06591        0.56676
H         -0.49897        2.63074        1.37844
H         -0.07986        1.41644       -2.54428
H          0.15278        1.96224       -0.98106
C         -1.80171        2.10521       -1.51053
C         -1.98533        2.47508       -0.03143
N         -0.48129        1.43352       -1.61069
N         -0.75157        3.05910        0.47906
H         -0.50455        0.44983       -1.25374
