42
2msa2eda_387.log	Energy: -1072751.4859911
S         -0.21268        2.34839        0.02443
O          0.12902        2.56090        1.43369
O         -1.64501        2.15505       -0.26864
O          0.56914        1.18532       -0.57328
C          0.33249        3.77756       -0.89436
H          0.13504        3.60365       -1.95205
H         -0.22848        4.63892       -0.53079
H          1.39956        3.91350       -0.71622
S          3.14548       -1.00577       -0.31741
O          3.30553       -1.08077       -1.75861
O          2.18628       -1.93901        0.29735
O          2.83914        0.45492        0.16150
H          1.90271        0.80503       -0.14469
C          4.71734       -1.24429        0.47429
H          5.03900       -2.25856        0.23623
H          5.41720       -0.51228        0.07227
H          4.58847       -1.11843        1.54863
H         -0.27817       -1.70033        2.51822
H          0.32470       -0.08911        2.07414
H         -1.66324        0.22869        3.38779
H         -2.02407        0.68894        1.72997
H         -2.86710       -1.81625        3.01070
H         -3.79828       -0.67032        2.31513
H          0.36060       -1.68995        0.28959
H         -1.33889       -1.77500        0.20920
C         -0.49483       -0.79822        1.93867
C         -1.80722       -0.16912        2.37365
N         -0.51513       -1.18966        0.50624
N         -2.89931       -1.13539        2.25855
H         -0.47871       -0.34617       -0.08945
H         -4.32852       -2.29675       -1.94059
H         -4.31083       -2.22991       -0.16531
H         -4.54286        0.02602       -1.22116
H         -3.15280       -0.12044       -0.15149
H         -3.04020        0.02411       -3.05007
H         -2.16975        0.81559       -1.89806
H         -2.53688       -3.63337       -0.97952
H         -1.92326       -2.37558       -1.84606
C         -3.74637       -1.96752       -1.06531
C         -3.55811       -0.45243       -1.10988
N         -2.43603       -2.62430       -1.00167
N         -2.59847       -0.07364       -2.14271
