41
2msa1dma1tma_11.log	Energy: -1027959.2785181
S          0.58772        2.02582        0.55449
O         -0.51799        2.99514        0.32750
O          1.94504        2.58955        0.60393
O          0.46883        0.90900       -0.44653
H          1.62099       -0.19175       -0.51048
C          0.26489        1.27755        2.14379
H          0.27289        2.06826        2.89458
H         -0.69985        0.77016        2.09270
H          1.03833        0.53656        2.34524
S         -0.99719       -1.95722        0.37633
O          0.30017       -1.92006        1.08957
O         -0.87124       -1.99642       -1.09441
O         -1.94873       -0.89390        0.84188
H         -2.14167        0.37964       -0.15804
C         -1.77932       -3.48883        0.87162
H         -1.13056       -4.31300        0.57305
H         -1.90743       -3.47422        1.95422
H         -2.74486       -3.56182        0.37054
N         -2.39179        1.22243       -0.74598
C         -3.77848        1.61540       -0.44063
C         -2.14551        0.89006       -2.16373
H         -1.73576        1.97466       -0.44066
H         -4.45125        0.79935       -0.70912
H         -3.85880        1.81558        0.62792
H         -4.03888        2.51355       -1.00383
H         -2.75962        0.03197       -2.44004
H         -2.38966        1.75400       -2.78545
H         -1.09353        0.62805       -2.25863
N          2.57389       -0.64442       -0.64244
C          2.39713       -1.97019       -1.27916
H          1.81197       -2.59299       -0.60480
H          1.84177       -1.84214       -2.20784
H          3.38162       -2.40430       -1.47373
C          3.32735        0.30288       -1.49921
H          2.82536        0.37449       -2.46439
H          3.31908        1.28092       -1.01466
H          4.34816       -0.06413       -1.63169
C          3.18099       -0.75435        0.70638
H          3.26518        0.25020        1.12547
H          2.52162       -1.36864        1.31947
H          4.17070       -1.20950        0.61608
