37
2msa1ma1eda_424.log	Energy: -1013352.5230632
S          2.23108       -0.99885       -0.66712
O          3.28006       -0.83762       -1.66399
O          0.94953       -0.28132       -1.04591
O          2.61947       -0.59815        0.71966
H          1.65637        0.46931        1.41304
C          1.78788       -2.72322       -0.56805
H          1.45571       -3.04490       -1.55574
H          2.68035       -3.27299       -0.26785
H          0.99401       -2.83725        0.17299
S         -1.74584       -1.00965        0.79390
O         -1.54593        0.35328        1.30694
O         -1.04089       -2.07456        1.49668
O         -1.40114       -1.05189       -0.74384
H         -0.40979       -0.78087       -0.89247
C         -3.48434       -1.33144        0.72418
H         -3.85428       -1.27528        1.74849
H         -3.93005       -0.56288        0.08232
H         -3.62721       -2.33143        0.31454
N         -3.66658        0.86966       -1.72138
H         -2.99316        0.18943       -2.06080
C         -2.98116        2.11340       -1.36519
H         -2.46803        2.60282       -2.20695
H         -3.70656        2.82088       -0.95292
H         -2.24142        1.90798       -0.58761
H         -4.33865        1.02893       -2.46406
H          1.09439        3.34449        2.01430
H          2.69503        2.55030        2.08064
H          2.28659        3.79674       -0.07201
H          2.62334        2.08472       -0.31988
H          0.39489        3.39560       -1.23073
H          0.54617        1.75997       -1.08322
H          0.89232        1.07540        2.79275
H          0.14124        1.21655        1.33705
C          1.72605        2.56817        1.57611
C          1.88117        2.79074        0.07208
N          1.06266        1.25962        1.80644
N          0.58656        2.64423       -0.58239
