40
2msa1dma1eda_217.log	Energy: -1038022.0928466
S          0.53551        2.15441        0.45015
O          1.05139        3.46917        0.09418
O          1.52454        1.19758        0.99836
O         -0.19119        1.48679       -0.72068
C         -0.72573        2.36000        1.69580
H         -0.24310        2.77148        2.58275
H         -1.47084        3.05865        1.31289
H         -1.17656        1.38830        1.90503
S         -2.71992       -0.61007       -0.27067
O         -2.40560       -0.58868        1.15370
O         -1.99296       -1.58332       -1.09236
O         -2.59132        0.82818       -0.88617
H         -1.61299        1.17699       -0.80834
C         -4.46027       -0.87396       -0.49544
H         -4.67962       -1.86766       -0.10397
H         -4.99877       -0.10938        0.06359
H         -4.68225       -0.81686       -1.56048
N          1.60880       -1.74978        1.36732
C          2.85596       -2.48590        1.55051
C          0.47511       -2.33638        2.07837
H          1.72612       -0.78010        1.65937
H          2.73997       -3.49671        1.14432
H          3.64961       -1.98015        0.99577
H          3.14080       -2.57630        2.60938
H          0.26717       -3.33051        1.66817
H          0.66470       -2.44594        3.15644
H         -0.41276       -1.71617        1.93343
H          2.36807       -2.14305       -2.13163
H          1.37632       -1.12403       -3.20662
H          3.62951       -0.18999       -2.91913
H          2.39324        0.91285       -2.30756
H          4.48384        0.37457       -0.89706
H          3.04516        0.42678       -0.13149
H          0.00261       -1.60571       -1.36705
H          1.21881       -1.38362       -0.20109
C          1.87755       -1.17201       -2.23607
C          2.89896       -0.04639       -2.11693
N          0.85079       -1.06570       -1.17236
N          3.58446       -0.08721       -0.82945
H          0.52488       -0.08408       -1.06060
