40
2msa1dma1eda_207.log	Energy: -1038021.1635616
S         -2.09203       -1.14353       -0.45338
O         -1.13495       -2.19882       -0.82377
O         -2.00255        0.10612       -1.23263
O         -2.05047       -0.86117        1.03227
H         -1.28662        0.56390        1.40831
C         -3.72494       -1.81267       -0.73321
H         -3.82237       -2.01717       -1.79985
H         -3.82256       -2.73232       -0.15627
H         -4.46157       -1.07461       -0.41549
S          2.44871       -0.54443       -0.73537
O          3.79615       -0.15462       -1.10872
O          1.45329        0.51668       -0.53060
O          2.53021       -1.40333        0.57830
H          1.67179       -1.33759        1.19608
C          1.80797       -1.67631       -1.94274
H          2.48938       -2.52567       -1.99579
H          0.80061       -1.97210       -1.63735
H          1.78411       -1.14434       -2.89485
N         -0.51749        2.63492       -0.62165
C          0.64013        3.51833       -0.75660
C         -1.77378        3.24601       -1.05478
H         -0.36508        1.76978       -1.14308
H          0.54166        4.35736       -0.05909
H          1.54495        2.95509       -0.52337
H          0.73138        3.92652       -1.77211
H         -2.02790        4.07598       -0.38590
H         -1.70807        3.63919       -2.07791
H         -2.55942        2.48954       -1.01899
H         -0.29087       -0.20152        3.84009
H          1.47296       -0.18045        3.70363
H          0.74699        1.98023        3.03762
H          1.25844        1.13814        1.56170
H         -1.42936        1.91649        2.35414
H         -0.66738        2.04157        0.74887
H          0.65274       -2.17695        2.76975
H         -0.35754       -1.40398        1.74073
C          0.54390       -0.16157        3.12586
C          0.51343        1.15624        2.35883
N          0.54524       -1.32506        2.22548
N         -0.79585        1.44174        1.71563
