34
2msa1a1eda_212.log	Energy: -988699.4535598
S          1.94665       -1.37328       -0.13580
O          3.00855       -0.37569       -0.32896
O          0.72004       -1.03272       -0.93825
O          1.59943       -1.62423        1.28914
H          0.90033       -0.23566        2.01502
C          2.54278       -2.92094       -0.78460
H          3.44457       -3.19034       -0.23458
H          1.76598       -3.67353       -0.64822
H          2.76292       -2.77662       -1.84236
S         -2.53065       -0.40412       -0.07106
O         -2.62893        0.49440       -1.21045
O         -2.14850        0.20590        1.21561
O         -1.61641       -1.63212       -0.37238
H         -0.61986       -1.38101       -0.59528
C         -4.08100       -1.23411        0.16811
H         -4.81252       -0.46727        0.42381
H         -4.34818       -1.72806       -0.76563
H         -3.97023       -1.95359        0.97865
N          0.42784        0.68255        2.19132
H         -0.54469        0.58906        1.84605
H          0.97006        1.42676        1.63362
H          0.42401        0.90168        3.18307
H          0.45095        1.51614       -1.28858
H          0.24024        3.05323       -2.13220
H          2.42545        3.16783       -1.27902
H          1.45745        4.15371       -0.16495
H          2.53395        1.46630        0.26589
H          2.76035        2.80317        1.17250
H         -1.64634        2.55599       -0.74354
H         -0.74560        2.62105        0.59302
C          0.35226        2.60335       -1.14027
C          1.63624        3.13314       -0.51769
N         -0.81643        2.98964       -0.34926
N          2.06288        2.30161        0.62958
