32
2msa2ma_77.log	Energy: -953963.3523014
S         -2.73927        0.10165       -0.01355
O         -2.77999        1.53772       -0.36500
O         -2.88122       -0.20919        1.40973
O         -1.47980       -0.51992       -0.60854
C         -4.07680       -0.68739       -0.88914
H         -5.00887       -0.25549       -0.52381
H         -3.95215       -0.49700       -1.95489
H         -4.03852       -1.75576       -0.67596
S          1.67345       -1.42287        0.08618
O          2.43829       -1.03027        1.26147
O          1.57096       -0.43200       -0.99381
O          0.24653       -1.89611        0.50270
H         -0.53767       -1.33871        0.06836
C          2.37364       -2.91809       -0.57136
H          3.40641       -2.70227       -0.84656
H          2.33592       -3.67916        0.20781
H          1.79052       -3.21831       -1.44156
N         -0.01733        1.87477       -0.06440
H         -0.89563        2.35293       -0.29572
H         -0.12024        0.94726       -0.50422
C          0.11607        1.72124        1.40566
H          0.99167        1.10717        1.61815
H          0.23444        2.70738        1.85487
H         -0.77853        1.23659        1.79894
H          0.84833        2.31112       -0.47599
N          2.55704        2.43412       -1.03911
H          2.55611        1.56323       -1.56662
C          3.50067        2.31445        0.08137
H          4.54596        2.21714       -0.23636
H          3.41640        3.19219        0.72783
H          3.24332        1.42774        0.66612
H          2.83798        3.17799       -1.66954
