32
2msa2ma_198.log	Energy: -953959.0742807
S         -2.52518       -0.23215       -0.29859
O         -3.86593       -0.36071       -0.82071
O         -1.71230       -1.49766       -0.77299
O         -2.37080       -0.07566        1.16060
H         -1.05675       -0.32687        2.23162
C         -1.68898        1.13299       -1.06741
H         -1.66291        0.95099       -2.14140
H         -2.26589        2.02871       -0.83324
H         -0.67785        1.21464       -0.66193
S          1.84115       -0.85270       -0.40628
O          2.58922       -0.10805        0.62322
O          1.40932       -0.08048       -1.57389
O          0.66149       -1.56893        0.25125
H         -0.76537       -1.51971       -0.41543
C          2.89019       -2.17219       -0.98540
H          3.75993       -1.71681       -1.45973
H          3.19067       -2.77827       -0.13081
H          2.32639       -2.76559       -1.70524
N          1.24223        2.71905        0.09542
H          1.55956        3.45446        0.71927
C          1.13148        3.23375       -1.27032
H          2.04042        3.72842       -1.64082
H          0.91311        2.39981       -1.94141
H          0.30573        3.95031       -1.32779
H          1.93710        1.97541        0.13294
N         -0.07992       -0.42996        2.57545
H         -0.06155       -1.02942        3.39679
C          0.52751        0.90106        2.82700
H          1.58827        0.77080        3.03551
H          0.41545        1.50066        1.91985
H          0.01582        1.37571        3.66457
H          0.39712       -0.92089        1.77603
