43
2msa1eda1tma_202.log	Energy: -1062672.3603070
S          0.52854       -1.79654       -0.67809
O          0.97267       -0.59922       -1.40210
O         -0.63027       -2.51423       -1.18622
O          0.33164       -1.43046        0.84009
H         -0.63550       -1.07021        1.06449
C          1.91502       -2.89934       -0.55168
H          2.72397       -2.37227       -0.03715
H          1.59783       -3.78121        0.00464
H          2.19386       -3.16622       -1.57187
S         -2.93337       -0.13949        0.48122
O         -3.90286        0.80626        1.03164
O         -1.86896       -0.50684        1.48662
O         -2.29108        0.31112       -0.79179
H         -1.14244        1.39203       -0.64924
C         -3.75913       -1.65966        0.06860
H         -4.19847       -2.06387        0.98077
H         -4.53188       -1.43161       -0.66572
H         -3.01126       -2.33515       -0.35051
H          3.68014        1.41698        1.98856
H          5.05978        0.30942        2.07734
H          5.20000        1.74528        0.11176
H          5.08847        0.03114       -0.33246
H          3.63716        1.62443       -1.59527
H          2.79525        0.40947       -0.91907
H          3.30340       -1.07959        2.48473
H          2.30887       -0.42004        1.39029
C          4.14262        0.53314        1.52202
C          4.52787        0.87991        0.08970
N          3.28296       -0.65073        1.56638
N          3.35023        1.23636       -0.70279
N         -0.58556        2.27928       -0.46638
C          0.20357        2.58356       -1.68241
H          0.83781        1.72446       -1.89545
H         -0.48644        2.75141       -2.51012
H          0.81137        3.47329       -1.50418
C         -1.61563        3.30812       -0.18272
H         -2.27564        3.38943       -1.04646
H         -2.20580        2.98568        0.67666
H         -1.12618        4.26398        0.01711
C          0.28026        2.03229        0.71415
H         -0.33507        1.60711        1.50866
H          1.06750        1.34062        0.42135
H          0.73057        2.97640        1.02854
