35
2msa1ma1dma_72.log	Energy: -978627.4838367
S         -1.33127       -1.75335       -0.18499
O         -2.65472       -2.28395        0.07317
O         -0.58895       -1.61728        1.19263
O         -1.24450       -0.46970       -0.90524
H         -0.65143        1.21469       -0.45992
C         -0.35760       -2.93399       -1.08212
H         -0.37267       -3.86946       -0.52276
H         -0.82433       -3.05934       -2.05978
H          0.65628       -2.53374       -1.16684
S          2.43797       -0.07225        0.09821
O          2.44179        1.14843       -0.75379
O          2.41719       -1.34211       -0.63472
O          1.32974        0.02643        1.11804
H          0.22447       -0.99007        1.14247
C          3.94926       -0.02226        1.04143
H          4.78120       -0.06658        0.33823
H          3.97272        0.90726        1.61004
H          3.96008       -0.88574        1.70671
N         -3.16896        1.61783        0.15732
H         -4.08801        2.01300       -0.01236
C         -3.07728        1.13903        1.54013
H         -3.82440        0.38091        1.80611
H         -2.09109        0.69500        1.70476
H         -3.17911        1.98412        2.22817
H         -3.06513        0.82696       -0.47372
N         -0.11870        2.08940       -0.59334
C         -0.17067        2.90255        0.63997
C         -0.64598        2.76972       -1.79283
H          0.87038        1.77933       -0.74919
H         -1.21327        3.15011        0.84066
H          0.25150        2.30582        1.44865
H          0.42406        3.80539        0.49177
H         -1.69064        3.02274       -1.60865
H         -0.05627        3.66732       -1.98532
H         -0.56874        2.08638       -2.63862
