30
2msa1eda_116.log	Energy: -953193.5191166
S          2.63447       -0.55383        0.07144
O          1.90431        0.38723        0.91246
O          3.89195       -1.10023        0.54694
O          2.94997        0.25002       -1.30637
H          3.87921        0.10073       -1.53286
C          1.54238       -1.82240       -0.48905
H          1.15299       -2.33404        0.39344
H          0.70287       -1.35017       -1.00893
H          2.11515       -2.49476       -1.12757
S         -2.04525       -1.09944        0.08084
O         -1.34929       -2.18670        0.78278
O         -1.24748       -0.50549       -1.03120
O         -2.54353       -0.01670        0.99255
H         -1.43432        1.11566        1.14494
C         -3.51562       -1.79313       -0.65434
H         -3.20851       -2.57174       -1.35302
H         -4.12660       -2.21333        0.14473
H         -4.05059       -0.99653       -1.17161
H          0.62646        2.23702       -0.92852
H          0.02360        3.89023       -1.05655
H          0.50540        3.44769        1.25379
H         -1.26764        3.58800        1.05493
H          0.25247        1.05219        1.20028
H         -0.59259        1.71876        2.44996
H         -1.52662        2.78531       -2.28381
H         -1.54740        1.44523       -1.33987
C         -0.23400        2.88677       -0.70268
C         -0.38488        2.99414        0.80988
N         -1.47746        2.46357       -1.32509
N         -0.55482        1.65281        1.43424
