38
2msa2dma_04.log	Energy: -1003306.0254117
S         -2.75296       -0.00968        0.08391
O         -2.84565        1.18992        0.92996
O         -2.91643       -1.31054        0.75080
O         -1.46276        0.01133       -0.72315
C         -4.04639        0.11905       -1.14138
H         -5.00227        0.09562       -0.61722
H         -3.92556        1.06286       -1.67331
H         -3.96450       -0.72442       -1.82703
S          2.82287       -0.00675       -0.16830
O          2.51270        1.23061       -0.93902
O          2.51697       -1.25537       -0.92160
O          2.19931        0.00257        1.17556
C          4.59158       -0.00207        0.06183
H          5.06253       -0.01025       -0.92113
H          4.86043        0.90052        0.61085
H          4.86308       -0.89392        0.62690
N          0.08459        2.16872       -0.04432
C          0.11718        2.42860        1.41288
C         -0.51560        3.25819       -0.83748
H          1.04508        1.93965       -0.38974
H         -0.90936        2.47203        1.77857
H          0.66166        1.60918        1.88185
H          0.63917        3.37039        1.59290
H         -1.54719        3.39830       -0.51036
H          0.05510        4.17630       -0.68848
H         -0.49422        2.97762       -1.89081
H         -0.48100        1.30833       -0.22769
N          0.06841       -2.16939       -0.05174
C         -0.52734       -3.27772       -0.82258
C          0.07183       -2.38813        1.41295
H          1.03614       -1.95513       -0.38477
H         -1.56946       -3.38817       -0.51851
H         -0.47247       -3.03552       -1.88414
H          0.02601       -4.19749       -0.62558
H         -0.96279       -2.42766        1.75601
H          0.59391       -3.32194        1.63006
H          0.60379       -1.55417        1.87065
H         -0.48812       -1.31021       -0.26420
