34
2msa1a1eda_334.log	Energy: -988687.3856428
S          0.40494        1.71252        0.29538
O          1.76941        2.19035        0.10184
O          0.02803        0.60886       -0.67884
O         -0.64747        2.77737        0.20226
H         -1.67360        2.40641       -0.87607
C          0.27447        1.00206        1.91975
H          1.03848        0.22100        1.99030
H          0.47549        1.80001        2.63574
H         -0.73490        0.60831        2.05152
S         -2.61171       -1.19975        0.11092
O         -3.19928       -0.50933       -1.05445
O         -2.77973       -0.53855        1.39606
O         -1.11104       -1.52821       -0.17214
H         -0.56903       -0.64331       -0.34859
C         -3.28627       -2.83798        0.17804
H         -3.10711       -3.32785       -0.77823
H         -2.79839       -3.36947        0.99472
H         -4.35429       -2.73056        0.36897
N         -2.27688        2.03682       -1.69568
H         -2.99916        2.70011       -1.96163
H         -2.69452        1.12106       -1.42772
H         -1.64180        1.87252       -2.47430
H          2.80758       -2.18959        0.05091
H          2.14651       -0.72910       -0.68105
H          3.98911       -1.52519       -2.05479
H          4.44856        0.00587       -1.29171
H          5.33927       -2.64446       -0.40373
H          6.26409       -1.40573       -0.93661
H          4.06454       -0.68638        1.51775
H          3.20545        0.57506        0.92089
C          3.02161       -1.13284       -0.16287
C          4.23563       -1.05016       -1.09067
N          3.17331       -0.42619        1.10393
N          5.41074       -1.63255       -0.43973
