42
2msa2eda_01.log	Energy: -1072775.4103230
S         -3.07582       -0.04656       -0.48515
O         -3.30828       -0.46613        0.91102
O         -2.03456       -0.88493       -1.16571
O         -2.77819        1.40115       -0.64666
H         -1.00278        1.54951       -0.88429
C         -4.59008       -0.34547       -1.37991
H         -4.84186       -1.40125       -1.27884
H         -5.36797        0.27933       -0.94064
H         -4.42814       -0.08402       -2.42557
S          2.81209       -0.62145       -0.58900
O          2.97673        0.52328        0.33126
O          1.93278       -0.32148       -1.74949
O          2.38689       -1.87410        0.10897
H          0.75473       -2.14904        0.09019
C          4.42647       -0.97840       -1.25961
H          4.78636       -0.08331       -1.76731
H          5.08676       -1.24341       -0.43360
H          4.33163       -1.80699       -1.96144
H          1.84710        2.35720       -0.86865
H          0.47147        3.26664       -1.53111
H          1.23379        4.36239        0.45970
H         -0.35812        3.67119        0.79880
H          2.05826        2.14066        1.47784
H          1.38834        3.22052        2.53310
H          0.41089        0.73254       -1.38209
H          0.02708        0.88738        0.21512
C          0.80826        2.64624       -0.69763
C          0.69170        3.41678        0.60892
N          0.00827        1.39835       -0.70486
N          1.20056        2.62947        1.73205
H         -1.68663       -2.31928        1.77710
H         -0.21614       -3.27238        2.12871
H         -0.19451       -1.24582        3.45395
H          1.12229       -1.19553        2.26641
H         -1.44921        0.18931        1.89596
H          0.02304        0.90965        2.21797
H         -0.46750       -3.26585       -0.17744
H         -0.87069       -1.66841       -0.28774
C         -0.59722       -2.34839        1.68799
C          0.03485       -1.14929        2.38226
N         -0.26868       -2.35708        0.23496
N         -0.43806        0.09871        1.80112
