32
2msa2ma_171.log	Energy: -953957.2482721
S         -2.22449       -0.91480       -0.01788
O         -2.96821        0.28442        0.43013
O         -1.27911       -1.44434        0.98980
O         -1.55399       -0.68871       -1.34147
C         -3.43826       -2.19165       -0.30598
H         -4.14840       -1.82977       -1.04957
H         -2.92284       -3.08271       -0.66475
H         -3.94024       -2.39256        0.64074
S          2.72681       -0.35146       -0.04291
O          2.25839        0.78639       -0.82055
O          3.09264       -0.17260        1.35098
O          4.04692       -0.90317       -0.81453
H          4.75347       -0.99823       -0.15974
C          1.60545       -1.70410       -0.23829
H          0.66351       -1.45486        0.26787
H          1.42907       -1.84791       -1.30422
H          2.06156       -2.58378        0.21579
N         -0.42678        1.78039       -1.09886
H         -0.85004        0.83241       -1.26873
H         -0.61376        2.01345       -0.06587
C         -1.03329        2.79166       -1.98090
H         -0.60254        3.77182       -1.77189
H         -0.85832        2.53050       -3.02496
H         -2.10653        2.81406       -1.78992
H          0.58459        1.68335       -1.21836
N         -1.02044        2.17255        1.57270
H         -1.18908        3.09160        1.96777
C         -0.06482        1.41399        2.39414
H         -0.31794        1.41475        3.46092
H         -0.06644        0.37591        2.05369
H          0.94131        1.82352        2.27152
H         -1.91152        1.67269        1.52671
