34
2msa1a1eda_294.log	Energy: -988690.7221671
S         -1.58757        1.69973        0.11268
O         -1.03431        0.43430        0.66639
O         -1.35079        2.89103        0.92554
O         -3.04151        1.47766       -0.24383
H         -3.38790        0.07031        0.18227
C         -0.77262        1.96073       -1.45644
H          0.30044        2.01972       -1.27224
H         -0.98817        1.11461       -2.11000
H         -1.15572        2.88643       -1.88691
S          2.23293       -0.55322        0.33110
O          1.51327       -1.81805        0.31688
O          2.11224        0.34220       -0.82085
O          3.77250       -0.88052        0.54070
H          4.34578       -0.32185       -0.09973
C          1.82162        0.32864        1.81376
H          0.75043        0.54159        1.75276
H          2.06032       -0.31515        2.66056
H          2.40799        1.24726        1.83950
N          5.06679        0.59905       -1.23233
H          5.61747        0.08110       -1.90907
H          5.61580        1.39150       -0.91633
H          4.23072        0.94886       -1.69674
H         -4.01056       -2.75934       -0.58937
H         -3.89732       -1.30936       -1.62019
H         -1.86954       -2.83096       -1.82875
H         -1.44796       -1.21431       -1.24393
H         -1.36060       -3.65104        0.28336
H         -0.47347       -2.27226        0.41731
H         -4.45342       -1.06396        0.91261
H         -2.79167       -1.27470        1.05798
C         -3.45580       -1.83453       -0.77077
C         -1.96840       -2.13873       -0.98387
N         -3.56174       -0.97388        0.43409
N         -1.41051       -2.63977        0.26562
