37
2msa1ma1eda_309.log	Energy: -1013356.7188049
S         -1.88297       -1.57155       -0.35553
O         -1.51702       -1.90078        1.05065
O         -1.14638       -2.35275       -1.35399
O         -1.78901       -0.08650       -0.60258
C         -3.61866       -1.93944       -0.51150
H         -3.75212       -3.00387       -0.31772
H         -4.16672       -1.34247        0.21735
H         -3.92388       -1.69183       -1.52823
S          1.16568        1.82708       -0.56941
O          2.50885        1.89762       -1.11546
O          1.02557        1.30815        0.80429
O          0.31261        0.94051       -1.54424
H         -0.54757        0.53705       -1.13755
C          0.38705        3.41609       -0.62135
H          0.97600        4.07744        0.01576
H          0.40640        3.75949       -1.65595
H         -0.63865        3.30173       -0.24008
N         -2.41375        2.51414        0.78465
H         -3.34187        2.91861        0.72752
C         -1.98953        2.37432        2.17713
H         -2.65051        1.74827        2.79418
H         -0.99055        1.93117        2.19382
H         -1.92288        3.36243        2.64346
H         -2.44650        1.59865        0.33942
H          1.63817       -2.97605       -0.14700
H          1.29177       -1.43097       -0.92170
H          3.76136       -1.91535       -0.94013
H          3.38912       -0.45433       -0.02897
H          4.12570       -3.04802        1.10953
H          4.68408       -1.55937        1.48820
H          0.16328       -1.74607        1.25667
H          1.73990       -1.74906        1.96174
C          1.80009       -1.89793       -0.07710
C          3.28060       -1.54349       -0.02715
N          1.16034       -1.42838        1.18058
N          3.85766       -2.07486        1.21106
H          1.13826       -0.38937        1.18513
