42
2msa2eda_190.log	Energy: -1072755.9857611
S          0.14582       -2.50945        0.78974
O         -0.54840       -3.78116        0.79101
O         -0.63602       -1.30744        1.11959
O          0.79724       -2.31860       -0.63084
C          1.54043       -2.55194        1.89162
H          1.14510       -2.64939        2.90310
H          2.15401       -3.41320        1.62751
H          2.09363       -1.61907        1.76877
S          2.36706        0.90571       -0.63582
O          2.10969        1.56292        0.65367
O          1.35914        1.20066       -1.68673
O          2.58330       -0.57692       -0.48943
H          1.50667       -1.55969       -0.62943
C          3.92171        1.52140       -1.25329
H          3.82124        2.59827       -1.39018
H          4.69172        1.29577       -0.51562
H          4.13427        1.02856       -2.20173
H         -2.13286        0.16312       -2.93332
H         -1.10503       -1.19184       -2.42665
H         -3.43793       -1.88414       -2.26257
H         -2.72336       -1.79465       -0.65277
H         -4.59080        0.15273       -1.78552
H         -4.69340       -0.66739       -0.37592
H         -0.28998        0.75676       -1.38373
H         -1.80282        1.23289       -0.77034
C         -1.84797       -0.46690       -2.08537
C         -3.05501       -1.18861       -1.50185
N         -1.21442        0.39705       -1.06795
N         -4.04550       -0.22847       -1.01927
H         -1.02968       -0.15921       -0.21745
H         -2.91243        3.04992        2.07409
H         -2.90942        1.34016        1.59712
H         -0.93729        1.96332        3.01075
H         -0.46663        1.31085        1.45509
H         -0.12682        4.03089        2.32846
H          0.76579        3.10047        1.29899
H         -3.33832        2.90857       -0.26661
H         -1.78230        3.44899       -0.07616
C         -2.39277        2.29714        1.46250
C         -0.94111        2.17267        1.93227
N         -2.40657        2.64981        0.03763
N         -0.17790        3.36430        1.56787
