37
2msa1ma1eda_462.log	Energy: -1013352.5277382
S         -0.89396        2.26676       -0.24769
O         -0.90929        3.67353       -0.58345
O         -0.00455        1.51501       -1.29876
O         -2.19055        1.57524       -0.12697
H         -2.84136       -0.02684       -0.20310
C         -0.02037        2.02875        1.28193
H          0.94598        2.52568        1.19158
H         -0.61434        2.49287        2.07035
H          0.09528        0.95374        1.43914
S         -0.29836       -1.87880       -0.33690
O         -1.47188       -2.79625       -0.26465
O         -0.05493       -1.16375        0.93524
O         -0.47922       -0.92836       -1.48679
H         -0.19722        0.49369       -1.34677
C          1.13459       -2.85768       -0.69761
H          1.27309       -3.56569        0.11961
H          0.96209       -3.37424       -1.64186
H          1.96907       -2.15327       -0.76666
N         -3.33700       -0.88977        0.10378
H         -4.24293       -0.92621       -0.35762
C         -3.45247       -0.86643        1.58235
H         -3.99233       -1.75173        1.91701
H         -2.43880       -0.88001        1.98381
H         -3.96935        0.04162        1.89065
H         -2.74724       -1.71878       -0.18026
H          3.02665        1.47157        1.18971
H          4.55126        0.74731        1.70206
H          4.58758        1.14780       -0.67669
H          4.64145       -0.59822       -0.35296
H          2.18438        0.83118       -1.11794
H          3.04560       -0.16537       -2.07356
H          2.83013       -0.48207        2.72917
H          2.05867       -0.76953        1.31590
C          3.62998        0.54485        1.14481
C          4.00124        0.28957       -0.31028
N          2.97222       -0.61168        1.73408
N          2.80403        0.02451       -1.10674
