43
2msa1eda1tma_86.log	Energy: -1062682.0624129
S          2.33843       -1.54995        0.06103
O          2.68346       -2.92940       -0.20966
O          1.28242       -1.28689        1.05086
O          1.96368       -0.86973       -1.30309
C          3.77795       -0.64439        0.58480
H          4.08543       -1.04833        1.54980
H          4.55756       -0.78969       -0.16287
H          3.50134        0.40805        0.66765
S          0.22975        2.18842       -0.90169
O         -0.30984        2.48329        0.44999
O         -0.68920        1.38013       -1.72205
O          1.60453        1.58519       -0.83648
H          1.75575        0.13071       -1.17317
C          0.45611        3.76215       -1.70563
H          1.13021        4.36324       -1.09538
H          0.88333        3.58086       -2.69196
H         -0.52015        4.24017       -1.78771
H         -2.75008       -0.15372        2.54694
H         -1.57317       -1.49467        2.60861
H         -1.17084        0.03653        4.46080
H          0.19159        0.09941        3.33601
H         -0.84994        2.29196        4.17680
H         -0.65507        2.21230        2.55266
H         -1.85638       -0.61960        0.32789
H         -1.24833        0.89113        0.87107
C         -1.69460       -0.41945        2.45414
C         -0.86872        0.36885        3.46275
N         -1.26304       -0.12250        1.06832
N         -1.14124        1.79555        3.34386
H         -0.29274       -0.45586        0.93952
N         -2.57543       -1.49125       -0.94714
C         -3.34424       -2.64422       -0.49216
H         -2.70668       -3.29860        0.10956
H         -4.18373       -2.31050        0.12518
H         -3.74415       -3.23078       -1.33590
C         -3.40595       -0.55991       -1.71024
H         -4.24683       -0.22877       -1.09303
H         -2.80529        0.30963       -1.98721
H         -3.80761       -1.02920       -2.62341
C         -1.40532       -1.90630       -1.72655
H         -0.83313       -1.02193       -2.01533
H         -0.76674       -2.55256       -1.11718
H         -1.69890       -2.45904       -2.63337
