37
2msa1ma1eda_290.log	Energy: -1013358.0257942
S          2.92785       -0.70994        0.02423
O          2.83665        0.82110        0.30797
O          3.18680       -0.99904       -1.37606
O          1.77997       -1.40477        0.63603
C          4.36564       -1.10117        0.99108
H          5.20622       -0.53170        0.59552
H          4.16787       -0.84462        2.03114
H          4.53856       -2.17171        0.87843
S         -0.48942        2.08141       -0.32502
O         -0.58821        2.00393        1.14615
O         -1.42956        1.17888       -1.03103
O          0.91756        1.91617       -0.81973
H          2.00424        1.27833       -0.13634
C         -0.93247        3.74152       -0.80123
H         -0.81881        3.82845       -1.88167
H         -1.96799        3.91221       -0.50599
H         -0.26446        4.43094       -0.28497
N         -2.35509       -0.16164        2.11309
H         -2.47725       -0.40176        3.09092
C         -3.63629        0.17961        1.48551
H         -4.13621        1.03818        1.95084
H         -3.45375        0.41392        0.43290
H         -4.31351       -0.67960        1.53479
H         -1.73302        0.65014        2.06269
H         -0.74991       -2.92348       -1.33787
H         -0.87670       -3.42914        0.35169
H         -2.97439       -3.95217       -0.82568
H         -3.25429       -2.72642        0.41481
H         -3.06272       -2.15863       -2.45768
H         -4.28649       -1.80069       -1.42395
H          0.07212       -1.26168        0.19980
H         -1.23899       -0.63860       -0.64691
C         -1.26896       -2.73360       -0.39402
C         -2.77441       -2.90451       -0.55392
N         -0.94513       -1.36074        0.03667
N         -3.28471       -1.92199       -1.49721
H         -1.44751       -1.08616        0.93140
