35
2msa1ma1dma_195.log	Energy: -978619.7951326
S          0.35804       -2.33063       -0.06688
O         -0.03234       -1.42917        1.16665
O          0.23327       -3.71032        0.34396
O          1.67102       -1.88478       -0.57795
H          2.64241       -0.52229       -0.52465
C         -0.85541       -1.93781       -1.29848
H         -1.84761       -2.04103       -0.85374
H         -0.70145       -0.90191       -1.60730
H         -0.70381       -2.63418       -2.12415
S          0.35896        1.92217       -0.18582
O         -0.63979        1.34130       -1.09420
O          1.61366        2.36936       -0.85511
O          0.69551        1.01040        0.96165
H          0.22666       -0.45465        1.04537
C         -0.36468        3.37426        0.54693
H         -0.59399        4.07622       -0.25498
H         -1.27523        3.06862        1.06340
H          0.35240        3.80350        1.24636
N          3.29653        0.29084       -0.46917
H          4.02677        0.15974       -1.16558
C          3.84510        0.40337        0.90339
H          4.54709        1.23590        0.94549
H          3.00461        0.58972        1.57110
H          4.34276       -0.52803        1.17220
H          2.73021        1.14838       -0.70930
N         -3.24658       -0.05135       -0.05290
C         -3.27042       -0.10146        1.39867
C         -4.42272        0.59069       -0.61187
H         -2.41425        0.44266       -0.36530
H         -4.10218       -0.73318        1.73060
H         -2.34387       -0.54776        1.76791
H         -3.39855        0.89013        1.87272
H         -5.31041       -0.01818       -0.40552
H         -4.60930        1.60078       -0.20221
H         -4.31591        0.67602       -1.69660
