30
2msa1eda_17.log	Energy: -953206.3988990
S         -1.68352       -1.32521       -0.00405
O         -2.35807       -0.70930        1.14791
O         -0.26083       -1.68320        0.28693
O         -1.79540       -0.52344       -1.26105
H         -1.04140        0.92406       -1.32278
C         -2.50849       -2.86640       -0.34621
H         -2.42184       -3.49449        0.54049
H         -3.55430       -2.64903       -0.56352
H         -2.02292       -3.33412       -1.20261
S          2.68838       -0.06346       -0.05061
O          1.96792        1.19144       -0.30173
O          4.09797       -0.10807       -0.37187
O          1.98467       -1.23938       -0.83478
H          1.04130       -1.39928       -0.49702
C          2.42489       -0.49314        1.65683
H          2.84476        0.31384        2.25781
H          1.35042       -0.59428        1.81961
H          2.94005       -1.43367        1.85134
H         -0.84628        3.82290       -0.61333
H         -2.17936        3.11131       -1.55659
H         -2.72640        3.30769        0.90365
H         -2.81187        1.65208        0.29762
H         -0.94378        2.64852        2.22178
H         -1.40717        1.09503        1.85601
H         -0.05808        2.06623       -2.09509
H          0.21153        1.67574       -0.51823
C         -1.44589        2.92229       -0.76901
C         -2.12466        2.47184        0.52623
N         -0.53114        1.84521       -1.22157
N         -1.12851        1.99397        1.47372
