42
2msa2eda_269.log	Energy: -1072754.9800141
S          0.95921        1.17333        1.55772
O          0.12643       -0.06093        1.80271
O          0.17391        2.26178        0.95086
O          2.17528        0.82399        0.78677
H          1.30838        0.78115       -1.00161
C          1.49751        1.70741        3.16950
H          0.61438        1.97152        3.75164
H          2.03852        0.88411        3.63610
H          2.14626        2.57316        3.03543
S         -2.74116       -0.66637        0.11537
O         -2.42500       -2.07247       -0.10932
O         -2.21436        0.28602       -0.86988
O         -2.35373       -0.21823        1.56284
H         -1.32454       -0.10385        1.67653
C         -4.50219       -0.46817        0.20897
H         -4.90684       -0.76242       -0.75972
H         -4.87644       -1.12011        0.99778
H         -4.71885        0.57805        0.42156
H         -0.94235        2.41425       -2.57261
H          0.16524        2.70255       -3.92036
H         -0.26338        0.25533       -3.46218
H          1.46391        0.70118       -3.37660
H         -0.34507        0.55364       -1.05827
H          0.66110       -0.71375       -1.38861
H          1.10124        4.03106       -2.32922
H          0.76264        3.03633       -1.07198
C          0.10582        2.32317       -2.89588
C          0.48152        0.84349       -2.92108
N          1.03979        3.05972       -2.05261
N          0.54473        0.33966       -1.53432
H          3.11684       -1.80979       -1.60083
H          3.82166       -3.32673       -1.02868
H          1.50949       -3.65193       -1.76361
H          1.70175       -4.01462       -0.03424
H         -0.26943       -2.61708       -0.55767
H          0.75384       -1.85871        0.44231
H          4.39999       -1.87760        0.63038
H          2.97885       -1.07881        0.65308
C          3.08206       -2.55601       -0.78696
C          1.70477       -3.20909       -0.78047
N          3.40014       -1.99718        0.52178
N          0.66344       -2.21139       -0.51261
