22
2msa1a_26.log	Energy: -869134.0544379
S          2.65907        0.06721       -0.00373
O          3.65375       -0.58180        0.81776
O          1.86367       -0.69735       -0.95674
O          3.42291        1.21387       -0.87337
H          3.13362        1.12882       -1.79276
C          1.60326        1.06388        1.01389
H          1.03469        0.38320        1.65045
H          2.23684        1.72700        1.60254
H          0.91741        1.61328        0.36864
S         -1.68102       -0.47619        0.14563
O         -1.06279       -0.71709        1.43980
O         -1.45156        0.82446       -0.49209
O         -3.24240       -0.71191        0.24826
H         -3.75033        0.17079        0.07852
C         -1.19998       -1.77681       -0.96061
H         -0.11677       -1.70181       -1.07377
H         -1.48330       -2.72558       -0.50509
H         -1.70790       -1.62845       -1.91308
N         -4.35848        1.61919       -0.22459
H         -4.68957        2.10907        0.60035
H         -5.07813        1.67564       -0.93757
H         -3.52445        2.09365       -0.56522
