37
2msa1ma1eda_99.log	Energy: -1013363.3424748
S          0.71787        1.79951       -0.24462
O          2.10070        2.16658        0.08167
O          0.11130        0.94950        0.85430
O          0.54617        1.14941       -1.56433
H          0.66701       -0.60655       -1.38269
C         -0.26446        3.28635       -0.28368
H         -0.18532        3.77107        0.68959
H          0.13399        3.92956       -1.06857
H         -1.29650        3.00846       -0.50257
S         -2.92590       -0.46047        0.08740
O         -2.12180       -1.68426       -0.05896
O         -3.22246        0.28716       -1.12256
O         -2.29202        0.45897        1.18629
H         -1.28229        0.68420        0.99867
C         -4.44212       -0.89225        0.90630
H         -4.99631       -1.54059        0.22710
H         -4.20374       -1.41115        1.83390
H         -4.99600        0.02632        1.09851
N          0.57822       -1.57549       -1.01914
H          1.12875       -1.59564       -0.11798
C          1.07218       -2.57804       -1.97635
H          0.93348       -3.57659       -1.55957
H          0.52304       -2.49517       -2.91472
H          2.13250       -2.38766       -2.13956
H         -0.41455       -1.70759       -0.77751
H          2.64298        0.34376        1.64389
H          3.42197       -0.83132        2.71017
H          4.91235       -0.42952        0.92518
H          4.25295       -2.04674        0.64536
H          3.22853        0.36627       -0.68500
H          4.21944       -0.73545       -1.37476
H          1.87535       -2.43373        2.03210
H          0.96065       -1.06981        1.99859
C          2.95561       -0.70095        1.72399
C          3.99852       -0.97820        0.64707
N          1.75527       -1.53754        1.57080
N          3.49174       -0.61943       -0.67736
