37
2msa1ma1eda_392.log	Energy: -1013352.6286668
S         -0.77285       -1.53759       -0.48604
O         -2.09370       -2.03502       -0.10522
O         -0.11956       -0.74676        0.62400
O         -0.75126       -0.73896       -1.74532
H         -0.14709        0.76070       -1.56460
C          0.30055       -2.93086       -0.77443
H          0.33472       -3.52924        0.13656
H         -0.12120       -3.50800       -1.59751
H          1.28951       -2.54943       -1.03482
S          2.97442        0.21963        0.33780
O          2.35444        1.55063        0.38596
O          3.06529       -0.40315       -0.97710
O          2.26841       -0.73853        1.36154
H          1.26843       -0.81521        1.10600
C          4.58130        0.32182        1.08076
H          5.18541        0.96445        0.43980
H          4.47243        0.75489        2.07446
H          5.00300       -0.68180        1.12863
N         -3.91012       -0.04736        1.59760
H         -3.24030       -0.72088        1.22810
C         -5.07632        0.00498        0.71811
H         -5.59384       -0.95664        0.58902
H         -5.79667        0.73440        1.10166
H         -4.76078        0.34366       -0.27318
H         -4.18026       -0.37807        2.51798
H         -0.70141        3.63275       -0.95597
H         -1.43473        2.74459       -2.32436
H         -2.93355        2.78250       -0.37518
H         -2.46105        1.13304       -0.78961
H         -2.37249        1.72837        1.58225
H         -0.98388        1.14739        1.05516
H          0.80759        2.04277       -2.09627
H          0.69423        1.75629       -0.49289
C         -1.04078        2.65643       -1.30905
C         -2.09210        2.08233       -0.37031
N          0.15061        1.75930       -1.37178
N         -1.58019        1.97193        0.98779
