42
2msa2eda_475.log	Energy: -1072746.1101426
S         -2.01132       -1.03731       -1.19056
O         -1.16773       -2.24848       -1.21909
O         -1.37847        0.15526       -1.80296
O         -2.53996       -0.72981        0.17964
C         -3.45647       -1.41580       -2.17082
H         -3.12499       -1.63940       -3.18515
H         -3.94943       -2.28135       -1.72791
H         -4.11814       -0.54931       -2.16444
S          2.85343        0.54674       -0.89428
O          3.26427        1.47829       -1.93289
O          2.34011        1.04641        0.37016
O          4.16429       -0.35152       -0.52808
H          4.86850       -0.10583       -1.14440
C          1.74423       -0.67239       -1.52749
H          0.80648       -0.17335       -1.79364
H          2.20025       -1.13505       -2.40242
H          1.55612       -1.39224       -0.72726
H          0.09895        2.81852        0.95186
H         -0.23447        1.66076       -0.35587
H         -1.47016        3.78794       -0.75240
H         -2.54491        2.40518       -0.53587
H         -2.04516        4.51867        1.43255
H         -3.47438        3.91629        0.91731
H         -0.40425        0.76263        2.00521
H         -1.81179        1.74934        2.09471
C         -0.67506        2.21474        0.47080
C         -1.84058        3.06239       -0.01745
N         -1.18621        1.23977        1.46340
N         -2.51573        3.67129        1.13290
H         -1.74453        0.48938        0.97754
H          1.35031       -1.98706        3.72906
H         -0.18476       -1.22779        4.17956
H         -0.60077       -3.19668        2.78966
H         -1.12244       -1.74793        1.93380
H          1.20176       -3.36081        1.30096
H          0.05080       -2.69736        0.31824
H          1.48980        0.37683        3.36364
H          1.45053       -0.34272        1.90272
C          0.48710       -1.42793        3.33708
C         -0.23860       -2.28068        2.29975
N          0.89296       -0.15240        2.73585
N          0.62315       -2.54191        1.14850
