26
2msa2a_56.log	Energy: -904639.3602672
S         -2.25738       -0.47180        0.02942
O         -1.73402       -1.69597        0.65025
O         -1.41137        0.02209       -1.09726
O         -2.54028        0.62646        1.01029
C         -3.84860       -0.86721       -0.67717
H         -3.70233       -1.65235       -1.41940
H         -4.49791       -1.21485        0.12663
H         -4.25554        0.03186       -1.13998
S          2.47603       -0.46979        0.14526
O          1.90018        0.33545        1.21037
O          3.75856       -1.11801        0.34629
O          2.66033        0.54611       -1.12410
H          3.53628        0.38791       -1.50413
C          1.26792       -1.60012       -0.47572
H          0.93176       -2.21037        0.36406
H          0.41698       -1.02855       -0.86107
H          1.74562       -2.20564       -1.24594
N         -0.35707        2.08524        1.42877
H         -1.25788        1.52090        1.36518
H          0.42066        1.44588        1.62591
H         -0.17739        2.48324        0.45939
H         -0.41867        2.80748        2.13899
N          0.06124        2.54721       -1.27130
H          1.00818        2.27649       -1.52284
H         -0.21429        3.32508       -1.86044
H         -0.54621        1.74598       -1.47307
