32
2msa2ma_216.log	Energy: -953955.2971506
S         -2.36273       -0.38164       -0.29752
O         -3.76265       -0.67656       -0.03912
O         -1.44810       -0.82044        0.83482
O         -2.06132        1.05021       -0.60738
H         -0.98665        1.64880        0.39153
C         -1.83932       -1.31362       -1.72447
H         -2.01800       -2.37025       -1.52188
H         -2.44472       -0.98155       -2.56835
H         -0.78007       -1.12229       -1.90640
S          1.76321       -1.10774        0.14889
O          1.85346        0.12590        0.95915
O          1.58751       -0.91414       -1.28329
O          0.66983       -2.04414        0.73861
H         -0.28153       -1.55842        0.75074
C          3.22158       -2.06655        0.45923
H          4.06395       -1.49858        0.06334
H          3.31785       -2.21312        1.53432
H          3.11740       -3.01767       -0.06225
N         -0.27787        1.94196        1.13258
H          0.51012        1.27053        1.06846
C         -0.90244        1.89817        2.47489
H         -0.15990        2.13936        3.23550
H         -1.72599        2.61097        2.50868
H         -1.28569        0.88876        2.62145
H          0.08476        2.86406        0.89736
N          2.36941        2.71229       -0.88320
H          2.42792        1.96636       -0.19987
C          1.33511        2.48289       -1.88453
H          0.29639        2.49388       -1.51594
H          1.41593        3.23979       -2.66983
H          1.50044        1.50521       -2.34130
H          2.30006        3.61243       -0.42614
