34
2msa1a1eda_300.log	Energy: -988690.2327787
S         -2.39557        0.72410       -0.09271
O         -1.59386        1.54850        0.80069
O         -2.99949       -0.48094        0.51285
O         -1.62978        0.34909       -1.38810
H         -0.64584       -0.04052       -1.24878
C         -3.72221        1.68149       -0.77946
H         -4.35966        1.98560        0.05112
H         -3.28925        2.54926       -1.27612
H         -4.27098        1.05634       -1.48294
S          1.00157       -1.70382       -0.28148
O          0.65344       -0.54201       -1.16697
O          0.14542       -2.88983       -0.54886
O          0.97933       -1.32928        1.15919
H         -0.56433       -1.95363        1.88965
C          2.67438       -2.10067       -0.71018
H          2.67653       -2.45337       -1.74195
H          3.25911       -1.17838       -0.61013
H          3.01376       -2.88232       -0.03025
N         -1.44159       -2.44783        1.62410
H         -2.12985       -1.72996        1.30807
H         -1.80862       -3.03605        2.36512
H         -1.13448       -2.98569        0.78999
H          2.34197        0.75085        1.14649
H          3.92468        1.48981        1.36741
H          2.17449        3.09140        1.92384
H          3.06276        3.65004        0.49695
H          0.43830        2.32600        0.38416
H          0.77749        3.87707        0.00618
H          2.55030        1.16493       -1.19389
H          4.05771        1.75480       -1.00478
C          3.02407        1.50782        0.74208
C          2.36251        2.88409        0.85607
N          3.38509        1.10107       -0.61402
N          1.16463        2.94086        0.02500
