29
2msa1a1ma_85.log	Energy: -929299.6684878
S          1.60265        0.99286        0.29836
O          1.17833        2.24572       -0.36037
O          3.06877        0.91837        0.55922
O          1.14503       -0.22337       -0.46286
H          2.44907       -1.04906       -0.97794
C          0.77482        0.91778        1.87049
H          1.04101        1.81458        2.43083
H         -0.30321        0.86786        1.68250
H          1.11637        0.02365        2.39309
S         -2.72726       -0.61213        0.04438
O         -4.08538       -1.05495        0.34786
O         -2.31132        0.63833        0.77818
O         -2.42277       -0.47216       -1.41401
H         -1.62142        1.07594       -1.74197
C         -1.61111       -1.87560        0.64407
H         -1.76433       -1.97944        1.71925
H         -1.85982       -2.80814        0.13566
H         -0.59119       -1.56435        0.41163
N         -1.42400        2.00683       -1.30868
H         -1.86180        1.84193       -0.36872
H         -1.86341        2.76553       -1.81853
H         -0.40941        2.16223       -1.16001
N          3.49032       -1.26570       -0.93181
H          3.90117       -1.27759       -1.86219
C          3.75275       -2.50257       -0.16494
H          4.82594       -2.64279       -0.03875
H          3.27886       -2.39528        0.81025
H          3.32043       -3.35462       -0.68849
H          3.79103       -0.41347       -0.40886
