32
2msa1a1dma_157.log	Energy: -953953.4427095
S          2.17786       -0.38050       -0.16393
O          2.05524        0.03805        1.24478
O          1.60729        0.52785       -1.15085
O          1.62324       -1.82535       -0.34392
H          0.60456       -1.87933       -0.05110
C          3.89556       -0.64385       -0.51051
H          4.28725       -1.35603        0.21486
H          3.98232       -1.02532       -1.52750
H          4.38789        0.32431       -0.41531
S         -1.93543       -1.22403       -0.11849
O         -3.09099       -2.10303       -0.16915
O         -0.69964       -1.89084        0.45846
O         -2.14684        0.06047        0.62728
H         -1.15141        0.16908        1.79070
C         -1.50752       -0.75311       -1.78343
H         -1.30867       -1.66443       -2.34874
H         -2.36533       -0.22607       -2.20196
H         -0.62814       -0.10696       -1.75903
N         -0.39447        0.11696        2.56080
H         -0.49538        0.87425        3.23098
H          0.53752        0.15576        2.10088
H         -0.48801       -0.78514        3.02317
N         -0.15362        3.07937       -0.52184
C         -1.40413        3.02934       -1.25966
C         -0.34983        3.22657        0.90450
H          0.41105        2.26117       -0.72356
H         -1.91440        3.99669       -1.18104
H         -1.19626        2.85129       -2.31866
H         -2.09590        2.25029       -0.89573
H         -0.72652        4.23197        1.12783
H         -1.08190        2.50799        1.32085
H          0.60818        3.10767        1.42128
