40
2msa1dma1eda_250.log	Energy: -1038020.1682626
S          1.34402        1.92634        0.36939
O          2.39567        2.32129       -0.56705
O          1.73974        0.89181        1.35167
O          0.08905        1.49860       -0.37830
C          0.84737        3.36573        1.29774
H          1.72085        3.72356        1.84325
H          0.49804        4.11903        0.59158
H          0.05364        3.07912        1.98834
S         -2.98075        0.01372       -0.47024
O         -2.28606       -1.22302       -0.84873
O         -3.41954        0.89061       -1.53966
O         -2.12066        0.79505        0.59694
H         -1.21392        1.12112        0.22040
C         -4.36257       -0.42413        0.55659
H         -5.04942       -0.99262       -0.07106
H         -4.00269       -1.03254        1.38584
H         -4.83207        0.49269        0.91162
N          0.82447       -1.93183        1.38072
C          1.66211       -3.10272        1.62150
C         -0.46940       -1.99392        2.05517
H          1.30721       -1.08198        1.67280
H          1.16696       -3.99210        1.21652
H          2.61333       -2.96571        1.10195
H          1.84742       -3.27528        2.69220
H         -1.06855       -2.80258        1.62400
H         -0.36875       -2.17295        3.13605
H         -1.00101       -1.05271        1.89867
H          1.73884       -2.62744       -2.07113
H          1.22899       -1.34167       -3.19494
H          3.60183       -1.13453       -2.65100
H          2.71522        0.27937       -2.07091
H          4.39772       -0.98991       -0.55537
H          3.03655       -0.40252        0.10168
H         -0.41983       -1.48246       -1.48705
H          0.68700       -1.52970       -0.21823
C          1.58041       -1.55171       -2.18097
C          2.87578       -0.79574       -1.90558
N          0.51655       -1.15812       -1.22751
N          3.38913       -1.08571       -0.56784
H          0.43153       -0.12934       -1.13484
