42
2msa2eda_194.log	Energy: -1072759.7224169
S          2.62061        1.12828       -0.75270
O          3.27934        2.35950       -1.17115
O          1.75478        1.27036        0.46716
O          3.55663       -0.03178       -0.55376
H          3.23688       -1.07463        0.48527
C          1.52639        0.61195       -2.06795
H          0.80549        1.40813       -2.25878
H          2.13669        0.44277       -2.95568
H          1.00323       -0.30255       -1.77894
S         -2.02068       -1.09533       -0.98769
O         -0.84354       -1.94423       -1.27106
O         -1.89907        0.27770       -1.56780
O         -2.36455       -1.03678        0.45795
H         -1.11003        0.91806        1.27586
C         -3.40408       -1.85271       -1.82284
H         -3.17370       -1.90052       -2.88726
H         -3.53698       -2.85412       -1.41262
H         -4.29118       -1.24400       -1.64697
H         -3.54298        2.25846        0.11081
H         -3.63540        3.38304        1.47119
H         -1.49024        3.59119        0.11627
H         -1.22640        3.25929        1.84672
H         -1.22680        1.22608       -0.33298
H          0.15216        1.72183        0.52738
H         -4.05032        1.49023        2.63286
H         -3.26669        0.49620        1.57426
C         -3.11367        2.49961        1.09280
C         -1.63906        2.86292        0.91643
N         -3.23245        1.39959        2.04563
N         -0.89125        1.63419        0.57471
H          2.21513       -1.93744        3.17459
H          2.26268       -0.29408        2.45712
H         -0.07448       -1.36057        2.39224
H          0.57586       -0.86314        0.82968
H          0.21279       -3.58033        1.73632
H          0.05033       -2.89872        0.24421
H          3.96903       -2.06861        1.65683
H          2.62280       -2.66070        0.83081
C          2.08282       -1.35182        2.26046
C          0.69897       -1.57720        1.64671
N          3.06896       -1.82484        1.25267
N          0.62704       -2.92289        1.08596
