40
2msa1dma1eda_186.log	Energy: -1038022.4869916
S          0.35532        1.78704       -0.49375
O         -0.54170        1.50255       -1.62351
O          1.79305        1.58420       -0.77725
O         -0.04861        1.02166        0.74738
C          0.15148        3.50688       -0.06723
H          0.45154        4.10163       -0.93031
H         -0.89925        3.67732        0.16958
H          0.78366        3.72735        0.79300
S         -3.05943       -0.61174        0.48984
O         -4.28534       -1.05460        1.11884
O         -1.94466       -1.55457        0.35695
O         -2.54928        0.66053        1.28516
H         -1.57421        0.83794        1.08188
C         -3.41462        0.04062       -1.12533
H         -3.75160       -0.79343       -1.74232
H         -4.20547        0.78340       -1.01959
H         -2.49950        0.48889       -1.52117
N          3.15523       -0.34207        1.02591
C          4.44149       -0.96638        0.73550
C          3.06562        0.23780        2.36305
H          2.95967        0.39293        0.34439
H          4.60949       -1.79756        1.42894
H          4.41537       -1.35888       -0.28391
H          5.28286       -0.26495        0.83513
H          3.15025       -0.55329        3.11635
H          3.85595        0.97747        2.55727
H          2.09263        0.72424        2.47253
H          1.55602       -3.32089       -0.60703
H         -0.21397       -3.05343       -0.66115
H          0.77136       -2.44295       -2.78709
H          0.12687       -1.00258       -2.00395
H          2.62409       -1.22226       -2.98451
H          2.20909       -0.15494       -1.81891
H          0.59397       -2.23455        1.36173
H          1.83993       -1.26189        0.68974
C          0.76492       -2.57011       -0.67818
C          0.92875       -1.75205       -1.95266
N          0.85678       -1.70936        0.53010
N          2.25681       -1.14729       -2.04439
H          0.19158       -0.92221        0.47922
