41
2msa1dma1tma_127.log	Energy: -1027936.4862447
S          1.06459        0.47312       -1.41256
O          1.95796        1.51707       -1.90907
O         -0.28377        0.50692       -2.09675
O          0.84895        0.51076        0.07334
H         -0.22886        1.54393        0.53678
C          1.76145       -1.12438       -1.74222
H          1.94192       -1.19328       -2.81535
H          2.68675       -1.21745       -1.16324
H          1.03679       -1.87011       -1.40914
S         -2.03432       -1.47465        0.17661
O         -2.18579       -0.49223        1.25364
O         -0.84990       -2.32133        0.18706
O         -2.21158       -0.77049       -1.21278
H         -1.34919       -0.26617       -1.56029
C         -3.48530       -2.50378        0.16706
H         -3.50023       -3.03596        1.11874
H         -4.36432       -1.86776        0.06701
H         -3.40751       -3.20243       -0.66534
N          3.67863       -1.60182        0.90311
C          2.49658       -2.24251        1.46617
C          3.90724       -0.27172        1.44844
H          4.49427       -2.18276        1.06258
H          1.60729       -1.66413        1.19857
H          2.38093       -3.24311        1.03991
H          2.53047       -2.33191        2.56650
H          3.06437        0.36937        1.17284
H          4.00462       -0.25981        2.54951
H          4.81587        0.15507        1.01435
N         -0.77516        2.42189        0.80712
C         -1.05487        2.33879        2.25893
H         -1.63971        1.43713        2.43933
H         -0.10550        2.27140        2.79146
H         -1.60034        3.23152        2.57517
C          0.13489        3.54221        0.46587
H          1.06297        3.42276        1.02494
H          0.36295        3.49457       -0.59990
H         -0.34597        4.49046        0.71708
C         -2.01762        2.46208       -0.00313
H         -1.74498        2.36196       -1.05471
H         -2.64328        1.61994        0.28970
H         -2.52903        3.41110        0.17681
