37
2msa1ma1eda_423.log	Energy: -1013354.7529621
S          0.22130        1.90737       -0.24613
O         -0.94561        2.80102       -0.50987
O          0.67620        1.15554       -1.42555
O         -0.06897        1.01008        0.92822
H         -0.63018       -0.42667        0.93811
C          1.55261        2.95951        0.28180
H          1.73012        3.68641       -0.51156
H          1.25130        3.45779        1.20303
H          2.43184        2.32552        0.42833
S         -1.51580       -2.01600       -0.27085
O         -1.94824       -3.35847        0.04525
O         -1.00144       -1.36116        1.07347
O         -2.50530       -1.10115       -0.87635
H         -2.95494        0.45427       -0.42211
C         -0.08812       -2.03398       -1.32166
H          0.73355       -2.49143       -0.76633
H         -0.35992       -2.60208       -2.21231
H          0.16163       -0.99825       -1.56750
N         -3.18320        1.41515       -0.07969
H         -2.35900        2.03282       -0.33335
C         -3.36240        1.40298        1.39208
H         -3.66113        2.39597        1.72729
H         -4.11601        0.66441        1.66352
H         -2.40268        1.14202        1.83703
H         -4.01633        1.73893       -0.56570
H          3.90031       -0.59529        1.91698
H          4.04453       -2.28200        1.38457
H          5.27669       -0.71310       -0.06516
H          4.04175       -1.63352       -0.94502
H          4.18476        0.86990       -1.32311
H          2.69239        0.32153       -0.99043
H          1.78249       -1.96303        1.82366
H          1.70528       -0.56020        1.01201
C          3.60706       -1.30990        1.13190
C          4.19649       -0.84359       -0.19326
N          2.15818       -1.47149        1.01971
N          3.62340        0.44164       -0.59530
