40
2msa1dma1eda_51.log	Energy: -1038034.9210102
S         -2.51775        1.06954        0.03079
O         -2.66090        0.00146        1.05967
O         -1.86392        0.55584       -1.20001
O         -1.86546        2.30124        0.54694
H         -0.17597        2.26078       -0.03910
C         -4.18020        1.54548       -0.41020
H         -4.69649        0.66667       -0.79711
H         -4.67468        1.92095        0.48578
H         -4.12134        2.32310       -1.17185
S          2.01286       -1.27103       -0.36836
O          2.09383       -0.47087       -1.60032
O          1.28944       -2.56322       -0.51314
O          1.43010       -0.48419        0.77449
H         -1.62932       -1.31272        0.62217
C          3.68242       -1.66648        0.11365
H          4.13952       -2.24224       -0.69143
H          4.20890       -0.72223        0.26348
H          3.65042       -2.24698        1.03588
N         -1.30183       -2.26528        0.34531
C         -2.14955       -2.72157       -0.77543
C         -1.33367       -3.13492        1.53664
H         -0.31385       -2.21970        0.01063
H         -3.17645       -2.83309       -0.42331
H         -2.10697       -1.95974       -1.55396
H         -1.76834       -3.67318       -1.14900
H         -2.34544       -3.15048        1.94467
H         -1.02069       -4.14188        1.25648
H         -0.64284       -2.72817        2.27495
H          1.63999        3.49453        1.27226
H          3.12763        3.91143        0.41698
H          1.47624        3.57299       -1.26004
H          2.53072        2.13037       -1.31364
H          0.26237        1.43270       -1.38919
H          0.88441        0.96144        0.04175
H          3.62560        2.28925        2.07563
H          2.59944        1.18874        1.41975
C          2.43248        3.09049        0.61947
C          1.81143        2.68947       -0.71194
N          3.18948        1.99205        1.21038
N          0.63281        1.81103       -0.51352
