30
2msa1eda_42.log	Energy: -953204.9386029
S         -1.04501       -1.91541        0.14657
O         -1.96370       -0.98737        0.87222
O         -0.25399       -2.80536        0.98519
O         -0.21823       -1.10524       -0.82950
C         -2.09542       -2.92289       -0.88633
H         -2.73953       -3.51128       -0.23230
H         -2.68852       -2.27296       -1.52978
H         -1.45566       -3.57586       -1.48027
S          2.60823        0.51378        0.09461
O          2.78082        0.18258        1.49656
O          1.66495        1.61037       -0.20565
O          2.24789       -0.73559       -0.77280
H          1.22955       -0.95803       -0.75199
C          4.17909        0.92825       -0.62098
H          4.54868        1.80639       -0.09099
H          4.84892        0.08102       -0.47509
H          4.03506        1.13993       -1.67965
H         -1.20319        2.71731       -1.15825
H         -1.41799        0.96898       -1.41171
H         -3.63658        2.16803       -1.48205
H         -3.54037        1.02426       -0.13446
H         -3.35170        3.93732        0.07859
H         -4.24923        2.89354        0.96323
H          0.02792        1.55499        0.45591
H         -1.34176        2.20900        1.23406
C         -1.64934        1.80587       -0.75100
C         -3.14592        1.96934       -0.52044
N         -1.00427        1.52314        0.55336
N         -3.36301        3.00912        0.48731
H         -1.29841        0.55908        0.85564
