40
2msa1dma1eda_546.log	Energy: -1038004.6826780
S          1.47798       -1.35827       -1.22998
O          2.28843       -1.80567       -2.35404
O          0.84560       -0.00795       -1.47227
O          2.22438       -1.32474        0.07906
H          2.48885       -0.05669        0.79147
C          0.13596       -2.49233       -0.96953
H         -0.48316       -2.48929       -1.86669
H          0.57282       -3.47678       -0.79758
H         -0.43672       -2.14442       -0.10230
S         -2.50507        0.66137       -0.51597
O         -3.16335        0.80239        0.77559
O         -2.53747       -0.61784       -1.20408
O         -1.00927        1.14149       -0.33519
H         -0.29765        0.54653       -0.82183
C         -3.15591        1.90856       -1.60972
H         -4.21216        1.68458       -1.76313
H         -3.03654        2.88343       -1.13732
H         -2.61078        1.85555       -2.55215
N         -1.19366       -1.39467        1.92962
C         -0.22731       -0.55586        2.60772
C         -1.33345       -2.70983        2.52606
H         -2.08979       -0.92087        1.87731
H          0.77012       -0.99806        2.48564
H         -0.23395        0.43582        2.14477
H         -0.41784       -0.43798        3.69004
H         -0.39148       -3.26022        2.41464
H         -1.58376       -2.68573        3.60157
H         -2.11294       -3.26847        2.00106
H          3.86461        2.60106        1.15945
H          3.91205        1.51398       -0.25383
H          2.37157        3.56465       -0.53540
H          1.61256        1.99035       -0.81571
H          1.07138        3.79196        1.38026
H          0.12833        2.60630        0.71122
H          3.45037        0.51283        2.07542
H          1.93477        1.20260        1.84853
C          3.27584        1.92692        0.53105
C          2.04612        2.63827       -0.05050
N          2.77366        0.81813        1.38074
N          1.06696        2.84844        1.01489
