38
2msa2dma_26.log	Energy: -1003291.6545538
S         -1.02895       -1.84798       -0.07461
O         -0.33426       -1.43658       -1.31153
O         -2.44944       -1.47431       -0.00678
O         -0.28666       -1.36041        1.15601
C         -0.93164       -3.62644        0.01256
H          0.12015       -3.91376        0.00146
H         -1.41228       -3.95023        0.93559
H         -1.45008       -4.03150       -0.85681
S          2.60804        0.25540        0.07874
O          3.90369        0.75486        0.49154
O          1.46863        1.17593        0.04781
O          2.24763       -0.96683        1.01472
H          1.24612       -1.13400        1.04371
C          2.74738       -0.49423       -1.52729
H          3.00137        0.29785       -2.23294
H          3.54322       -1.23775       -1.48351
H          1.78254       -0.94767       -1.76440
N         -1.27817        1.29454        1.39480
C         -2.67864        1.13824        1.83658
C         -0.53867        2.36756        2.08641
H         -0.79126        0.38561        1.49410
H         -3.22635        2.05501        1.60807
H         -3.10895        0.29076        1.30156
H         -2.70778        0.95339        2.91251
H         -1.04570        3.31852        1.90969
H         -0.51136        2.16478        3.15918
H          0.47260        2.40056        1.68280
H         -1.27047        1.46364        0.31736
N         -1.27051        1.53330       -1.32574
C         -0.61204        2.72630       -1.85218
C         -2.59173        1.29966       -1.90859
H         -0.68804        0.71300       -1.50274
H         -1.19559        3.61396       -1.58388
H          0.38234        2.80969       -1.40962
H         -0.51723        2.70324       -2.94793
H         -3.26561        2.11517       -1.62312
H         -2.55997        1.25103       -3.00666
H         -2.98713        0.35741       -1.52275
