25
2msa1ma_70.log	Energy: -893786.4073319
S         -2.17123       -0.68853       -0.00457
O         -3.15636       -1.72262        0.23113
O         -1.09595       -0.92045       -0.96856
O         -1.49200       -0.34047        1.40674
H         -0.52243       -0.22684        1.29101
C         -2.98302        0.83499       -0.40471
H         -3.50209        0.67363       -1.35085
H         -3.69602        1.05237        0.39088
H         -2.20998        1.60962       -0.49939
S          2.07558       -0.39844       -0.03339
O          2.08864        0.61987       -1.05996
O          1.24056       -0.20119        1.15501
O          3.58142       -0.59923        0.52853
H          3.62617       -0.22854        1.42250
C          1.80222       -1.99343       -0.74882
H          0.78966       -1.96467       -1.15793
H          2.55131       -2.14098       -1.52685
H          1.88861       -2.74039        0.03955
N         -0.29702        2.70123       -0.71071
H          0.33870        2.00897       -1.09824
C          0.23247        3.20818        0.55435
H          1.22505        3.67504        0.47586
H         -0.46075        3.94497        0.97089
H          0.30403        2.38373        1.26862
H         -0.36320        3.45027       -1.39181
