43
2msa1eda1tma_30.log	Energy: -1062691.9582309
S         -3.04509        0.48034       -0.08514
O         -2.64775        1.24812        1.10413
O         -3.35606       -0.95607        0.19051
O         -2.05641        0.60611       -1.20151
C         -4.57249        1.17060       -0.69556
H         -5.32686        1.06005        0.08368
H         -4.40280        2.22439       -0.91768
H         -4.86166        0.62678       -1.59473
S          2.88158       -0.77397       -0.12066
O          2.53376       -2.20049        0.04720
O          2.74650        0.03712        1.10864
O          2.15149       -0.14228       -1.27185
C          4.60776       -0.73374       -0.58461
H          5.18273       -1.19182        0.22056
H          4.72724       -1.29528       -1.51134
H          4.90372        0.30624       -0.72519
H         -0.44585        2.67201        1.06021
H          0.70332        1.34682        1.36953
H          1.75178        3.54774        1.89434
H          2.59047        2.65477        0.62437
H          0.84901        4.98308        0.21700
H          2.36671        4.73323       -0.33962
H         -0.56867        1.39753       -0.86405
H          0.53054        2.63079       -1.23642
C          0.50393        2.22569        0.75673
C          1.67053        3.19891        0.85723
N          0.37373        1.79698       -0.65944
N          1.49066        4.27415       -0.12236
H          1.10159        1.07148       -0.90628
N         -1.10078       -2.40379        0.24643
C         -0.36637       -1.58959        1.25208
H         -0.31844       -0.56647        0.88416
H         -0.92945       -1.60263        2.18570
H          0.64312       -1.98359        1.37174
C         -1.24719       -3.80505        0.69578
H         -1.74284       -3.81691        1.66715
H         -1.85145       -4.35137       -0.02925
H         -0.25618       -4.25649        0.77438
C         -0.47571       -2.31544       -1.10352
H         -1.03673       -2.96176       -1.78009
H         -0.55227       -1.28262       -1.44149
H          0.57251       -2.61056       -1.03106
H         -2.05358       -1.95684        0.17925
