35
2msa1ma1dma_190.log	Energy: -978620.5919442
S          2.30715       -0.61318       -0.57157
O          1.31589       -0.36475       -1.76593
O          3.26570       -1.60986       -0.99912
O          1.52858       -0.88739        0.65339
H          0.17218       -1.82969        1.04922
C          3.10552        0.95105       -0.33593
H          3.58863        1.21689       -1.27648
H          2.34158        1.68330       -0.03534
H          3.84842        0.81154        0.45092
S         -2.09449       -0.02619       -0.63329
O         -2.19191        0.16989        0.83376
O         -2.07963       -1.46111       -1.01482
O         -0.94246        0.72856       -1.22253
H          0.42588        0.05215       -1.50325
C         -3.54561        0.69710       -1.36573
H         -4.41917        0.19228       -0.95347
H         -3.55798        1.75828       -1.11670
H         -3.48555        0.55240       -2.44430
N         -0.77633       -2.19936        1.27382
H         -1.30070       -1.39883        1.65919
C         -0.74684       -3.39013        2.14300
H         -1.76658       -3.72053        2.33938
H         -0.19391       -4.18363        1.64112
H         -0.25194       -3.14021        3.08102
H         -1.24731       -2.34302        0.35902
N          0.49952        2.51215        0.81354
C          0.01603        3.87257        0.64849
C          0.50951        2.08203        2.20217
H         -0.09466        1.88689        0.27430
H          0.72314        4.57672        1.10219
H         -0.05782        4.10722       -0.41687
H         -0.97211        4.04318        1.11126
H          1.21128        2.70053        2.77436
H         -0.47924        2.15225        2.68632
H          0.84998        1.04415        2.25442
