35
2msa1ma1dma_252.log	Energy: -978618.3835626
S          0.69083       -1.13909       -0.41804
O         -0.53992       -1.93033       -0.70530
O          0.54831       -0.30357        0.79700
O          1.12478       -0.32370       -1.59581
H          0.48322        1.16315       -1.47450
C          1.98475       -2.32211       -0.13548
H          1.67883       -2.95603        0.69735
H          2.10155       -2.91181       -1.04490
H          2.90362       -1.77506        0.10363
S         -3.19143        0.19536        0.25584
O         -4.62329        0.38183        0.32557
O         -2.38015        1.37073       -0.10949
O         -2.91409       -0.97434       -0.75655
H         -1.94850       -1.30131       -0.75887
C         -2.56713       -0.41592        1.80468
H         -2.79056        0.34441        2.55414
H         -3.08813       -1.34609        2.03137
H         -1.48812       -0.56328        1.70673
N          0.02799        2.07112       -1.17140
H         -0.14031        2.66070       -1.98319
C          0.87300        2.73663       -0.15209
H          0.37205        3.63296        0.21301
H          1.01617        2.02091        0.65708
H          1.83636        2.99202       -0.59387
H         -0.89413        1.79929       -0.76572
N          4.46751       -0.07096        0.66000
C          3.74698        0.47341        1.80248
C          4.29057        0.71976       -0.54877
H          5.45445       -0.14347        0.87949
H          2.67001        0.37778        1.63063
H          3.99224       -0.10061        2.70019
H          3.97683        1.53701        1.99621
H          3.25518        0.63001       -0.89420
H          4.52180        1.79166       -0.40592
H          4.93447        0.33069       -1.34196
