44
2msa2tma_09.log	Energy: -1052605.0711834
S         -0.50504       -2.25449       -0.35807
O         -1.96544       -2.26847       -0.22715
O          0.25658       -2.91189        0.71559
O          0.01588       -0.83234       -0.55945
C         -0.09933       -3.08817       -1.88327
H         -0.61460       -2.58338       -2.70094
H          0.98142       -3.05167       -2.02278
H         -0.44001       -4.12014       -1.79435
S         -2.46194        1.56320       -0.18673
O         -2.94027        2.87437       -0.57336
O         -1.72062        1.42082        1.06916
O         -1.55862        1.02462       -1.37146
H         -0.97795        0.25348       -1.06092
C         -3.81578        0.41208       -0.15900
H         -4.47285        0.70688        0.66012
H         -4.33406        0.48645       -1.11498
H         -3.40496       -0.58940       -0.00844
N          3.03169        1.09848       -0.82532
C          3.17700       -0.17744       -1.51158
H          3.90864       -0.80171       -0.98727
H          2.21395       -0.69417       -1.51241
H          3.52075       -0.05312       -2.55535
C          2.02975        1.92561       -1.48480
H          1.06976        1.40596       -1.50252
H          1.89918        2.86536       -0.93893
H          2.30989        2.17196       -2.52539
C          4.30551        1.79140       -0.72882
H          4.17633        2.73526       -0.18968
H          5.02329        1.17615       -0.17651
H          4.74039        2.02013       -1.71973
N          1.02473        0.00536        1.89209
C          2.29604       -0.75955        1.96015
H          2.07419       -1.80379        1.73792
H          2.97140       -0.34095        1.21332
H          2.71690       -0.65260        2.96276
C          1.25682        1.46493        2.04076
H          1.98301        1.75930        1.28237
H          0.30837        1.97936        1.89039
H          1.64932        1.65277        3.04302
C          0.02645       -0.50342        2.87082
H         -0.90593        0.03843        2.71691
H         -0.12072       -1.56729        2.68228
H          0.41410       -0.33701        3.87851
H          0.62809       -0.17213        0.93997
