40
2msa1dma1eda_489.log	Energy: -1038011.6500662
S         -2.24407       -0.94720       -0.80885
O         -3.56769       -1.50124       -1.08543
O         -1.60380       -1.42563        0.44423
O         -2.23891        0.57434       -0.81339
H         -2.21820        1.05966        0.61572
C         -1.16594       -1.41402       -2.15204
H         -1.21608       -2.50001       -2.24147
H         -1.53783       -0.94536       -3.06363
H         -0.14436       -1.10014       -1.92947
S          2.49408       -1.21594        0.32133
O          3.87713       -1.56355        0.60598
O          2.13681       -0.91410       -1.06639
O          2.03822       -0.00629        1.23836
H          2.19230        0.92755        0.78465
C          1.42174       -2.48782        0.93715
H          1.67716       -3.39757        0.39161
H          1.62410       -2.61808        2.00047
H          0.38302       -2.19831        0.75406
N         -2.15773        1.35803        1.65969
C         -0.74890        1.17936        2.08325
C         -3.12870        0.54436        2.42879
H         -2.40850        2.34432        1.70301
H         -0.47976        0.13923        1.90523
H         -0.13240        1.82148        1.45491
H         -0.63867        1.43846        3.13814
H         -2.86028       -0.50311        2.28520
H         -3.08788        0.81819        3.48480
H         -4.12744        0.71572        2.02619
H          2.32601        3.25830       -1.76861
H          2.76157        1.53355       -1.72274
H          0.52363        1.76156       -2.63437
H          0.47771        0.92327       -1.08749
H         -0.27819        3.72046       -1.49124
H         -1.20815        2.44927       -1.05377
H          3.28579        2.69307        0.35737
H          1.68790        3.00185        0.57166
C          2.10427        2.29268       -1.29222
C          0.66104        1.89408       -1.55215
N          2.35095        2.34692        0.16102
N         -0.27849        2.85317       -0.96121
