37
2msa1ma1eda_106.log	Energy: -1013364.3114750
S          2.85972       -0.00262       -0.02757
O          2.01240       -1.01680        0.62493
O          4.20137        0.19140        0.47521
O          2.12672        1.38979        0.02621
H          1.14012        1.33115       -0.23425
C          2.90815       -0.39840       -1.76021
H          3.48293       -1.32038       -1.85705
H          1.88591       -0.55517       -2.11490
H          3.40518        0.42236       -2.27719
S         -1.54062        1.74008       -0.11903
O         -2.73542        1.05914       -0.63962
O         -0.28353        1.17473       -0.73216
O         -1.43420        1.76193        1.36166
H         -0.75626        0.21311        1.89062
C         -1.61445        3.43966       -0.64732
H         -1.66280        3.45303       -1.73620
H         -2.51122        3.88414       -0.21538
H         -0.71992        3.94901       -0.28852
N         -0.47486       -0.78861        1.88929
H         -1.20508       -1.27152        1.28048
C         -0.42031       -1.36215        3.24604
H         -0.15783       -2.41841        3.18164
H          0.33167       -0.83785        3.83564
H         -1.39571       -1.25490        3.72158
H          0.44430       -0.84954        1.41896
H         -2.01882       -1.53444       -2.39966
H         -1.32557       -3.14095       -2.57389
H         -3.26458       -3.22289       -1.13316
H         -1.81638       -3.68054       -0.22817
H         -2.84912       -0.91973       -0.13392
H         -3.32915       -2.08065        0.91366
H         -0.26523       -0.82834       -1.11635
H          0.34458       -2.34359       -0.86101
C         -1.46417       -2.31471       -1.86594
C         -2.32550       -2.83609       -0.71136
N         -0.16906       -1.75965       -1.51256
N         -2.56518       -1.80096        0.30548
