41
2msa1dma1tma_176.log	Energy: -1027932.1634512
S         -1.43902       -1.91038       -0.38027
O         -2.35386       -1.97624        0.77787
O         -0.33061       -2.87713       -0.36093
O         -0.95373       -0.49737       -0.60297
C         -2.42055       -2.28645       -1.82784
H         -2.81833       -3.29446       -1.70676
H         -3.23200       -1.56136       -1.89725
H         -1.77662       -2.23328       -2.70625
S          2.93322       -0.19560        0.03887
O          1.96225        0.34450        0.97376
O          4.08909       -0.92941        0.52408
O          3.50671        1.08473       -0.79587
H          4.47138        1.01268       -0.81764
C          2.09557       -1.09433       -1.23016
H          1.33108       -0.44162       -1.65282
H          2.83546       -1.40801       -1.96615
H          1.59360       -1.94628       -0.76043
N         -1.36127        2.32578       -1.17999
C          0.04672        2.53405       -1.48373
C         -2.24100        3.08405       -2.05308
H         -1.55470        1.32902       -1.25535
H          0.32051        3.57637       -1.28130
H          0.65975        1.89509       -0.84243
H          0.30409        2.31889       -2.53525
H         -2.09715        4.15678       -1.88097
H         -2.06708        2.89265       -3.12648
H         -3.28486        2.84670       -1.82765
N         -1.09668        0.84008        1.79828
C         -0.40562        2.14527        1.94421
H          0.66748        1.98239        1.85800
H         -0.75670        2.79580        1.14179
H         -0.65367        2.56178        2.92354
C         -2.57256        1.00775        1.82615
H         -2.84108        1.71502        1.04047
H         -3.02493        0.03359        1.63657
H         -2.86375        1.39473        2.80564
C         -0.63691       -0.15158        2.80692
H         -1.16250       -1.08946        2.62311
H          0.43629       -0.29073        2.68042
H         -0.86155        0.23491        3.80380
H         -0.87884        0.42830        0.85551
