37
2msa1ma1eda_232.log	Energy: -1013359.9609957
S          2.19106       -1.16946       -0.41442
O          2.00073       -1.10599       -1.86349
O          0.88759       -1.29879        0.34139
O          2.98468       -0.05459        0.16914
C          3.10140       -2.65699       -0.03973
H          2.53821       -3.50622       -0.42750
H          4.07185       -2.58440       -0.53127
H          3.22026       -2.72966        1.04120
S         -2.41742       -0.86815       -0.19287
O         -2.24333        0.37630       -0.93790
O         -2.51066       -0.74431        1.26361
O         -1.33308       -1.92127       -0.59160
H         -0.37730       -1.67008       -0.24730
C         -3.86513       -1.70468       -0.79229
H         -4.71573       -1.05751       -0.57678
H         -3.75313       -1.85445       -1.86567
H         -3.95771       -2.65536       -0.26839
N         -0.46380        1.16976        2.41911
H         -0.90316        1.87760        2.99997
C          0.42002        0.31680        3.22853
H         -0.09603       -0.16842        4.06540
H          0.83690       -0.45376        2.57668
H          1.24462        0.91522        3.62771
H         -1.21858        0.59797        2.03494
H          1.30825        2.02638       -1.74524
H          0.02575        1.00084       -1.08543
H         -0.95311        3.05584       -2.06430
H         -1.24483        2.96320       -0.33120
H          0.74591        4.68434       -1.62848
H         -0.42792        5.10709       -0.57586
H          1.98737        1.33916        0.37471
H          1.50047        2.97352        0.50430
C          0.52990        1.96015       -0.98013
C         -0.46370        3.10515       -1.08411
N          1.18936        2.01153        0.34803
N          0.22615        4.37125       -0.81468
H          0.50532        1.73935        1.12918
