41
2msa1dma1tma_93.log	Energy: -1027937.6095243
S         -2.25168       -1.93752        0.12828
O         -3.22828       -0.72124        0.25073
O         -1.56013       -2.19035        1.38907
O         -1.40575       -1.81691       -1.05944
C         -3.45119       -3.21913       -0.15261
H         -4.12133       -3.25803        0.70552
H         -3.99486       -2.98724       -1.06801
H         -2.90016       -4.15422       -0.25666
S         -1.31978        2.25394        0.08304
O         -0.97269        1.49858       -1.15345
O         -0.14464        2.79102        0.78678
O         -2.21027        1.44522        0.97702
H         -2.76627        0.16851        0.53193
C         -2.30923        3.64101       -0.44198
H         -3.18289        3.25828       -0.96965
H         -2.60720        4.19430        0.44884
H         -1.70130        4.26439       -1.09784
N          4.70406       -0.90903        0.44471
C          5.07359        0.05654        1.47168
C          5.58501       -0.86382       -0.71388
H          4.71427       -1.84289        0.84109
H          4.95266        1.07085        1.07534
H          4.40752       -0.04397        2.33276
H          6.11457       -0.04611        1.81912
H          5.48154        0.10841       -1.20903
H          6.65061       -1.00023       -0.46655
H          5.29434       -1.63599       -1.43155
N          1.24952        0.02110       -0.61835
C          1.60443       -1.16713       -1.43070
H          0.86658       -1.94462       -1.23908
H          1.57270       -0.89160       -2.48577
H          2.61035       -1.48100       -1.14445
C          2.16754        1.15997       -0.87826
H          2.13234        1.39749       -1.94221
H          1.81653        2.01543       -0.29928
H          3.17240        0.85520       -0.58155
C          1.20505       -0.30428        0.83481
H          0.91094        0.59708        1.37437
H          0.46785       -1.09067        1.00095
H          2.20401       -0.63113        1.12887
H          0.29610        0.36093       -0.89288
