42
2msa2eda_559.log	Energy: -1072742.6626558
S          2.85483       -0.87258       -0.59234
O          3.62671       -1.62159       -1.56690
O          2.41505       -1.54316        0.62780
O          1.58388       -0.22893       -1.30680
H          0.73384       -0.64934       -0.96922
C          3.74033        0.60558       -0.16353
H          4.65094        0.29435        0.34993
H          3.98477        1.13319       -1.08601
H          3.08443        1.19296        0.48526
S         -1.24985       -1.62885        0.70925
O         -1.01452       -0.63742        1.76642
O         -0.71706       -1.20036       -0.63021
O         -2.69701       -1.98755        0.54432
H         -3.30472       -1.15166       -0.64500
C         -0.39473       -3.12345        1.14356
H          0.66807       -2.88002        1.19999
H         -0.78049       -3.46008        2.10609
H         -0.58582       -3.86326        0.36621
H          1.85927        3.96856        0.88115
H          0.23452        4.62841        0.62118
H          0.18782        3.23717        2.60172
H         -0.72965        2.42601        1.33372
H          1.71547        1.54820        2.52992
H          0.55333        0.68411        1.77164
H          1.22672        3.67815       -1.42045
H          1.16668        2.19588       -0.72704
C          0.82592        3.70498        0.59974
C          0.28036        2.72436        1.63454
N          0.73010        3.11725       -0.73670
N          1.11908        1.52798        1.71103
H         -4.58828        1.37336       -1.63955
H         -4.86579        0.57449       -0.06210
H         -3.21116        2.56979       -0.06179
H         -2.60738        1.08100        0.67543
H         -1.28096        2.37005       -1.26486
H         -1.18283        0.77836       -1.04741
H         -4.35791       -0.95400       -1.97559
H         -2.83780       -0.25777       -2.00652
C         -4.12616        0.79986       -0.83267
C         -2.90586        1.54157       -0.27569
N         -3.64974       -0.48719       -1.41444
N         -1.84350        1.51906       -1.27420
