40
2msa1dma1eda_468.log	Energy: -1038010.1851893
S          1.06928       -1.48687       -0.91226
O          1.16791       -0.07176       -1.32632
O          0.11648       -2.29517       -1.66184
O          0.77649       -1.55684        0.62689
H         -0.09598       -1.02456        0.84542
C          2.69290       -2.18573       -0.95210
H          3.01130       -2.18548       -1.99511
H          3.32437       -1.54125       -0.32841
H          2.63141       -3.20252       -0.56427
S         -2.68391       -0.42057        0.86334
O         -3.46647       -0.08290        2.04086
O         -1.20364       -0.13122        1.01997
O         -3.15469        0.21216       -0.40803
H         -2.01163        0.88454       -1.26044
C         -2.78277       -2.18283        0.59900
H         -3.82891       -2.42772        0.41370
H         -2.16224       -2.44835       -0.25917
H         -2.43051       -2.67990        1.50358
N          3.46573        0.36286        0.98709
C          3.80552        1.48245        0.12299
C          4.13103        0.42638        2.28011
H          2.46099        0.34164        1.13082
H          4.87424        1.44498       -0.11563
H          3.24576        1.39730       -0.81274
H          3.59956        2.46672        0.57894
H          5.21091        0.30805        2.13919
H          3.96075        1.37698        2.81285
H          3.78205       -0.39319        2.91344
H         -0.28530        3.14425       -2.23524
H         -2.04725        3.23380       -2.01418
H         -0.85125        4.22411       -0.09806
H         -1.81989        2.84581        0.40618
H          0.01576        1.56586        0.76030
H          1.06336        2.55739       -0.06682
H         -1.38344        1.07707       -2.81222
H         -0.33984        0.83646       -1.55518
C         -1.12616        2.78364       -1.63479
C         -0.92456        3.13144       -0.15486
N         -1.22035        1.31261       -1.83522
N          0.21826        2.52321        0.49118
