42
2msa2eda_113.log	Energy: -1072766.3533596
S          1.95379        1.77898       -0.10416
O          1.62314        2.29691        1.25928
O          0.93511        2.08493       -1.11869
O          2.28312        0.31935       -0.05278
C          3.45781        2.61574       -0.56958
H          3.25074        3.68562       -0.59763
H          4.22316        2.38879        0.17236
H          3.75265        2.25638       -1.55572
S         -2.86280        0.46965       -0.59579
O         -4.31551        0.34030       -0.60116
O         -2.15893       -0.38523       -1.59676
O         -2.26570        0.24535        0.77628
H         -0.92272        0.51231        1.59650
C         -2.44493        2.15449       -1.00980
H         -2.85194        2.35549       -2.00147
H         -2.91020        2.80851       -0.27122
H         -1.35739        2.26038       -1.01044
H          0.10791       -2.88066       -2.40202
H          0.99793       -1.43960       -2.91668
H          2.59844       -3.26361       -2.54576
H          2.83900       -1.99008       -1.34001
H          1.52519       -4.56037       -0.84263
H          2.79221       -3.88939       -0.05519
H         -0.65331       -0.91639       -1.23212
H          0.06203       -1.96574       -0.13601
C          0.83984       -2.13159       -2.08660
C          2.15261       -2.77816       -1.66543
N          0.25965       -1.36958       -0.96441
N          1.92704       -3.67989       -0.53817
H          0.93478       -0.64049       -0.66046
H         -1.05230       -1.63583        3.61457
H          0.32095       -2.64431        3.15244
H          1.15957       -0.43671        3.53806
H          1.27110       -0.75243        1.80266
H         -0.67266        0.97704        3.16941
H          0.48858        1.38140        2.00201
H         -1.34338       -3.16756        1.64352
H         -1.71604       -1.60181        1.30632
C         -0.32431       -1.82982        2.80975
C          0.57415       -0.61316        2.63221
N         -0.95309       -2.23617        1.55523
N         -0.18232        0.63754        2.34394
