29
2msa1a1ma_59.log	Energy: -929300.1152118
S          2.46528       -0.53427        0.21247
O          3.84554       -0.84454       -0.12641
O          1.56957       -0.40112       -1.00830
O          2.27680        0.68696        1.05782
H          1.34534        1.70829        0.25349
C          1.79546       -1.89287        1.15224
H          1.89532       -2.79853        0.55281
H          2.38363       -1.97652        2.06656
H          0.74859       -1.68571        1.38122
S         -1.71548       -0.54027       -0.40591
O         -1.66851        0.90790       -0.69427
O         -1.50146       -0.91192        0.98899
O         -0.71785       -1.29623       -1.34323
H          0.26980       -0.97052       -1.19207
C         -3.26345       -1.17404       -0.98048
H         -4.02335       -0.70635       -0.34579
H         -3.37825       -0.90335       -2.02948
H         -3.24893       -2.25599       -0.84906
N         -4.24300        0.54875        1.62848
H         -3.93131        1.47937        1.37088
H         -3.45468        0.07750        2.06408
H         -4.97900        0.64543        2.31891
N          0.76328        2.25852       -0.44943
H          1.20925        2.07182       -1.34779
C          0.68143        3.69711       -0.13230
H          0.09688        4.21362       -0.89385
H          0.19904        3.81181        0.83785
H          1.68672        4.11533       -0.08603
H         -0.17115        1.80599       -0.49363
