37
2msa1ma1eda_251.log	Energy: -1013359.0800477
S         -1.95098       -1.37268       -0.25378
O         -2.57668       -0.11406       -0.65447
O         -1.37797       -1.41579        1.09148
O         -0.90250       -1.83952       -1.32052
H         -0.06052       -1.23324       -1.33945
C         -3.13370       -2.68617       -0.42577
H         -3.93451       -2.48390        0.28601
H         -3.51268       -2.67569       -1.44728
H         -2.63802       -3.62896       -0.19684
S          2.29068       -0.49749       -0.51806
O          2.69937        0.75682        0.13936
O          1.07426       -0.28751       -1.38988
O          2.08895       -1.62590        0.41794
H          1.01299       -0.79616        1.80665
C          3.59143       -0.97028       -1.64037
H          3.71931       -0.16991       -2.36926
H          4.50212       -1.11211       -1.05821
H          3.29879       -1.89868       -2.13092
N          0.85822        0.08064        2.32992
H          1.78541        0.48957        2.44502
C          0.13937       -0.12932        3.59793
H         -0.01869        0.83300        4.08676
H         -0.82155       -0.58685        3.36543
H          0.71255       -0.78534        4.25433
H          0.30950        0.75140        1.65019
H         -0.55786        3.57837        1.30819
H          0.99164        3.20758        0.51766
H         -0.39649        4.80308       -0.79890
H         -0.03790        3.31567       -1.68952
H         -2.43444        4.15411       -1.67440
H         -2.27679        2.59197       -1.23575
H         -1.39815        1.49278        0.50782
H         -0.01490        1.18403       -0.30206
C         -0.09416        3.08466        0.44774
C         -0.60523        3.72849       -0.83925
N         -0.39292        1.65163        0.52553
N         -2.05027        3.54421       -0.96243
