30
2msa1eda_146.log	Energy: -953185.5460942
S         -3.07265       -0.53213       -0.03388
O         -4.35479       -1.11191       -0.34693
O         -2.86715        0.90426       -0.26842
O         -1.97285       -1.33840       -0.85068
H         -1.13140       -0.81585       -0.92945
C         -2.65073       -0.87044        1.65984
H         -3.38636       -0.35421        2.27805
H         -2.70803       -1.94820        1.81091
H         -1.64668       -0.48637        1.85273
S          0.42010        1.23597        0.02028
O          0.27387        0.13400       -0.95060
O          0.30625        0.86571        1.42255
O         -0.63672        2.36211       -0.34580
H         -1.54087        1.94597       -0.34288
C          1.92245        2.10200       -0.28987
H          2.75191        1.42959       -0.02214
H          1.94963        2.36193       -1.34785
H          1.92291        2.99164        0.34055
H          5.08327       -1.92093        0.43972
H          4.34909       -1.07908        1.81559
H          2.76388       -2.66873        0.75635
H          2.18541       -1.00689        0.70423
H          3.06792       -2.59402       -1.55409
H          1.89470       -1.44271       -1.45656
H          5.47541        0.48522        0.36052
H          4.51592        0.01711       -0.88962
C          4.32045       -1.17779        0.72510
C          2.94365       -1.68438        0.30102
N          4.55483        0.13361        0.12071
N          2.82950       -1.69338       -1.15726
