42
2msa2eda_108.log	Energy: -1072768.2036843
S         -3.26245       -0.16493        0.48148
O         -4.62088       -0.68912        0.45291
O         -3.16389        1.32230        0.32231
O         -2.32242       -0.83404       -0.48360
H         -0.21482        1.17990       -0.17122
C         -2.57540       -0.50580        2.09969
H         -3.18520        0.01486        2.83873
H         -2.61910       -1.58281        2.26838
H         -1.54438       -0.14576        2.13035
S          2.15980        1.13201        0.86773
O          0.82751        0.49884        1.16076
O          1.99434        2.32880        0.01265
O          3.11914        0.14633        0.32206
H          0.61178       -1.30577        0.41634
C          2.79546        1.67969        2.43959
H          2.09246        2.39913        2.85957
H          2.89362        0.81025        3.08998
H          3.76620        2.14425        2.26535
H          1.01260        2.34962       -2.73651
H          0.29107        1.25232       -3.91445
H         -1.49561        2.22685       -2.65445
H         -1.40132        0.51592       -2.20745
H         -0.35108        2.74224       -0.58619
H         -1.76506        1.78558       -0.29526
H          1.80646       -0.15522       -3.12316
H          2.02117        0.61808       -1.71193
C          0.48579        1.39389       -2.84731
C         -0.87430        1.47156       -2.16658
N          1.30658        0.27734       -2.35411
N         -0.79371        1.83431       -0.73048
H          2.53993       -2.75106       -1.46340
H          2.28957       -4.33727       -0.73691
H          0.15948       -3.39908       -1.64457
H          0.08255       -3.67938        0.11085
H          0.58568       -1.05649       -1.21469
H         -0.82181       -1.49131       -0.41002
H          3.33225       -3.39009        1.01899
H          2.91838       -1.84645        0.62681
C          2.07761       -3.27142       -0.61001
C          0.56316       -3.09397       -0.67560
N          2.58108       -2.80734        0.67472
N          0.21081       -1.67574       -0.45840
