29
2msa1a1ma_43.log	Energy: -929307.9056352
S         -2.01924       -0.56589        0.11174
O         -2.59545        0.70727       -0.40241
O         -1.33169       -0.43756        1.40609
O         -1.15422       -1.19732       -0.94268
H          0.26873       -1.66329       -0.69576
C         -3.39192       -1.67777        0.34130
H         -4.06797       -1.23220        1.07129
H         -3.88980       -1.81125       -0.61886
H         -2.99764       -2.62514        0.70947
S          2.16392       -0.78640       -0.09349
O          3.54016       -1.14780       -0.35735
O          1.24455       -1.95646       -0.59767
O          1.66039        0.48506       -0.64289
H          0.13037        0.97193       -1.79892
C          1.87407       -0.75628        1.65976
H          2.20294       -1.71228        2.06755
H          2.46795        0.06004        2.07336
H          0.80444       -0.59917        1.82211
N         -0.53396        1.75560       -1.84041
H         -0.67137        2.06520       -2.79709
H         -0.10580        2.51065       -1.21696
H         -1.43092        1.42284       -1.40852
N          0.73859        3.22710        0.10733
H          1.58420        2.66226        0.05439
C         -0.02374        2.86542        1.31356
H          0.52423        3.05326        2.24458
H         -0.95671        3.43346        1.33677
H         -0.28658        1.80516        1.27222
H          1.01643        4.20251        0.13139
