34
2msa1a1eda_84.log	Energy: -988706.1342075
S         -1.44172       -1.48938       -0.31987
O         -2.39149       -0.64671        0.44725
O         -0.59584       -2.36964        0.49533
O         -0.63093       -0.62253       -1.25573
H          0.89399       -0.56904       -1.22915
C         -2.43069       -2.52153       -1.38525
H         -3.05290       -3.15350       -0.75107
H         -3.04764       -1.87766       -2.01203
H         -1.75883       -3.12845       -1.99242
S          2.53445       -0.18570        0.15737
O          3.88112        0.30423       -0.04123
O          1.90599       -0.44245       -1.26426
O          1.60800        0.64036        0.94869
H         -0.04029        1.22763        0.80803
C          2.57622       -1.79895        0.89789
H          3.20867       -2.43277        0.27620
H          3.00656       -1.68225        1.89327
H          1.55115       -2.17609        0.94466
N         -2.12819        0.73708        3.14084
H         -2.97853        1.03397        3.60772
H         -1.50079        0.37216        3.85036
H         -2.36492       -0.03242        2.51103
H         -1.66721        3.64231        0.27936
H          0.02893        3.61084        0.84219
H         -0.13086        3.98599       -1.61550
H          0.72922        2.49163       -1.23890
H         -1.27794        2.57837       -2.96188
H         -1.09704        1.26034       -1.99995
H         -1.31704        1.71622        1.77310
H         -1.60046        1.19757        0.24769
C         -0.71934        3.10242        0.22963
C         -0.25860        2.97453       -1.21921
N         -0.93323        1.75404        0.80056
N         -1.26545        2.26482       -2.00017
