43
2msa1eda1tma_24.log	Energy: -1062691.6810788
S         -3.15166       -0.16472       -0.21335
O         -2.10717       -0.19714        0.84888
O         -3.30487       -1.44896       -0.91772
O         -2.94207        1.00433       -1.12356
C         -4.70522        0.15312        0.61129
H         -4.89317       -0.66210        1.31054
H         -4.62812        1.10401        1.13878
H         -5.48697        0.19544       -0.14742
S          2.78862        0.12232       -0.11514
O          3.06854       -0.78926        1.00720
O          2.74029        1.55652        0.21482
O          1.54337       -0.31372       -0.86519
C          4.11368       -0.07985       -1.29678
H          5.03946        0.23721       -0.81579
H          4.17093       -1.13138       -1.57939
H          3.89986        0.54181       -2.16633
H          1.23183        2.83703       -1.11862
H         -0.34464        3.41881       -1.71588
H          0.72279        4.85058        0.10625
H         -0.91342        4.29681        0.49668
H          1.50283        2.91261        1.45935
H          0.42791        3.78308        2.37906
H          0.19389        0.92004       -0.78202
H         -0.42418        1.65180        0.55064
C          0.18869        3.01470       -0.85405
C          0.11924        3.96300        0.34476
N         -0.40330        1.70742       -0.47883
N          0.54095        3.23746        1.53492
H         -1.38413        1.54708       -0.81640
N          0.53133       -2.60821        0.23763
C         -0.60971       -3.15081       -0.54462
H         -1.44670       -2.44933       -0.52613
H         -0.28339       -3.30650       -1.57388
H         -0.91232       -4.10307       -0.10286
C          1.70554       -3.51379        0.19999
H          1.97498       -3.69324       -0.84198
H          2.53082       -3.02535        0.71843
H          1.44004       -4.45753        0.68144
C          0.14149       -2.27575        1.63551
H          0.99992       -1.80501        2.11646
H         -0.70755       -1.58963        1.59575
H         -0.13203       -3.20114        2.14823
H          0.84011       -1.70819       -0.20728
