40
2msa1dma1eda_573.log	Energy: -1038003.9509831
S         -1.88864       -1.62189        0.63501
O         -1.75563       -2.95219        1.20203
O         -1.87752       -1.49372       -0.82348
O         -0.78116       -0.64985        1.24157
H          0.14596       -0.89684        0.90439
C         -3.33670       -0.82547        1.27630
H         -4.17562       -1.47029        1.00945
H         -3.23833       -0.75953        2.35980
H         -3.44307        0.15652        0.79998
S          2.18268       -0.80034       -0.84335
O          1.62323       -1.14397        0.50725
O          3.59867       -1.13237       -0.97316
O          1.89045        0.65596       -1.13083
H          2.20052        1.45113        0.13020
C          1.25111       -1.71946       -2.04529
H          1.46329       -2.77610       -1.87928
H          0.18738       -1.52083       -1.89948
H          1.58629       -1.40894       -3.03511
N          2.51156        1.92528        1.05566
C          3.80111        1.30482        1.45490
C          1.44071        1.77276        2.06996
H          2.65415        2.91229        0.84610
H          3.62166        0.24305        1.62687
H          4.51159        1.41074        0.63545
H          4.17586        1.78508        2.36033
H          1.29509        0.70724        2.24356
H          1.73461        2.27454        2.99365
H          0.51816        2.19913        1.67660
H         -2.76455        3.55764       -1.56866
H         -2.94934        3.53089        0.20018
H         -0.62766        3.10620       -0.53501
H         -1.30340        1.75556        0.40861
H         -0.06716        1.26909       -1.75930
H         -1.48432        0.51449       -1.55723
H         -4.69550        2.25488       -0.75054
H         -3.65697        1.32781       -1.59426
C         -2.74949        2.90844       -0.68006
C         -1.36208        2.29004       -0.55492
N         -3.76422        1.85276       -0.72976
N         -1.06812        1.43257       -1.69663
