22
2msa1a_12.log	Energy: -869141.0004908
S         -2.38591        0.22542        0.14569
O         -3.68727        0.81463        0.37011
O         -1.73142       -0.54059        1.20078
O         -1.40979        1.42240       -0.28348
H         -0.47414        1.17739       -0.09626
C         -2.43524       -0.77215       -1.32656
H         -3.10360       -1.60899       -1.11935
H         -2.82795       -0.15869       -2.13718
H         -1.42271       -1.11980       -1.53787
S          1.69225       -0.72830       -0.13934
O          3.13839       -0.67304       -0.32887
O          0.85130       -1.22883       -1.21293
O          1.20132        0.74750        0.22609
H          2.00228        1.44715        0.15831
C          1.30778       -1.61558        1.34839
H          1.91558       -1.21217        2.15779
H          0.24110       -1.48343        1.54078
H          1.55103       -2.66259        1.16326
N          3.21446        2.31702        0.00260
H          3.14117        2.99139       -0.75307
H          3.93245        1.63677       -0.24160
H          3.50659        2.80977        0.84078
