40
2msa1dma1eda_273.log	Energy: -1038017.8668277
S         -0.66986        2.23151       -0.44797
O         -1.67779        1.91311       -1.46349
O          0.72916        1.92164       -0.91105
O         -0.92962        1.59886        0.87657
C         -0.70203        3.99275       -0.17547
H         -1.70018        4.26097        0.17151
H          0.04875        4.24040        0.57485
H         -0.48024        4.48193       -1.12405
S          2.89717       -0.48691        0.33651
O          2.92175       -0.86802       -1.06972
O          2.04974       -1.30383        1.21663
O          2.56129        1.02845        0.51132
H          1.76646        1.38345       -0.07914
C          4.54387       -0.50867        1.00063
H          4.88370       -1.54428        0.97265
H          5.17302        0.12391        0.37531
H          4.50701       -0.13989        2.02527
N         -3.33842       -1.35721        1.09819
C         -3.93141       -0.75002       -0.09281
C         -3.41376       -0.47734        2.26369
H         -3.79449       -2.24117        1.29651
H         -3.35806        0.14084       -0.37293
H         -3.88987       -1.46138       -0.92229
H         -4.97908       -0.44751        0.05734
H         -2.83007        0.42664        2.06182
H         -4.44475       -0.17612        2.50546
H         -2.98209       -0.97994        3.13333
H         -1.33970       -0.82173       -1.60041
H          0.40447       -0.65248       -1.41435
H         -0.02883       -2.75672       -2.55823
H          0.63888       -3.07722       -0.96024
H         -2.18045       -3.37368       -1.70835
H         -1.17925       -4.49870       -1.07895
H         -0.72043       -0.09733        0.61161
H         -1.55717       -1.53509        0.65934
C         -0.45873       -1.24957       -1.11550
C         -0.24920       -2.70708       -1.48290
N         -0.64999       -1.10566        0.35075
N         -1.40148       -3.51011       -1.07195
H          0.16599       -1.47962        0.85043
