28
2msa1dma_67.log	Energy: -918450.1558982
S         -2.97462       -0.44842       -0.18252
O         -2.95187       -1.16765       -1.43673
O         -2.63130        0.98234       -0.19825
O         -2.07313       -1.16631        0.90882
H         -1.14243       -0.80424        0.88310
C         -4.56102       -0.63275        0.58806
H         -5.29283       -0.19879       -0.09391
H         -4.74681       -1.69813        0.72343
H         -4.55062       -0.10654        1.54155
S          0.83856        1.01046       -0.02059
O          1.25164        0.63421       -1.35828
O          0.32641       -0.06162        0.85304
O         -0.24666        2.17026       -0.06723
H         -1.15569        1.78049       -0.18044
C          2.15324        1.83918        0.81932
H          2.97857        1.11525        0.82797
H          2.41367        2.72517        0.23968
H          1.81400        2.10088        1.82077
N          3.86691       -0.76644       -0.12933
C          3.34716       -1.96293        0.51901
C          5.29097       -0.85207       -0.41263
H          3.35282       -0.60424       -0.99065
H          3.80930       -2.06950        1.50674
H          2.26822       -1.86332        0.65968
H          3.54636       -2.88870       -0.04695
H          5.84631       -0.90047        0.53047
H          5.56806       -1.73721       -1.01078
H          5.61690        0.04333       -0.94902
