42
2msa2eda_490.log	Energy: -1072743.5569635
S          0.21660       -1.63764        1.11036
O          1.30273       -2.60527        1.15004
O         -0.19072       -1.26729       -0.30643
O          0.46736       -0.37364        1.86741
H          0.26032        0.87205        0.85051
C         -1.22969       -2.37736        1.84393
H         -1.45831       -3.29035        1.29297
H         -0.98415       -2.61036        2.88047
H         -2.05556       -1.66555        1.79115
S         -3.15722        0.20644       -0.64000
O         -2.38160        1.40663       -0.99804
O         -3.45166        0.03395        0.77608
O         -2.47683       -1.06808       -1.23474
H         -1.51375       -1.20374       -0.83335
C         -4.66129        0.21953       -1.57937
H         -5.23964        1.07877       -1.23882
H         -4.40951        0.31217       -2.63519
H         -5.19384       -0.70980       -1.37936
H         -0.21112        3.79252        0.64144
H         -0.29259        2.74818        2.07799
H          1.85899        4.02674        2.06266
H          2.14631        2.29104        1.89302
H          2.37428        4.27929       -0.23365
H          3.36658        3.02614        0.13227
H         -0.81756        1.67214       -0.18108
H          0.83884        1.78687       -0.44141
C          0.24404        2.93632        1.14643
C          1.73220        3.17014        1.38902
N          0.10674        1.74777        0.27845
N          2.39885        3.32115        0.09646
H          3.17580       -2.04865       -0.46835
H          4.61546       -1.27886        0.16912
H          2.76546        0.28504        0.27092
H          3.95074        0.87050       -0.91680
H          1.38291       -0.39043       -1.57118
H          2.01655        1.04954       -2.13368
H          4.00770       -1.55263       -2.67955
H          5.39460       -0.96253       -2.05923
C          3.91756       -1.27090       -0.67587
C          3.20607        0.08689       -0.72244
N          4.64284       -1.62454       -1.88953
N          2.23212        0.11606       -1.80842
