42
2msa2eda_468.log	Energy: -1072749.7524398
S          2.28896       -1.29696       -0.19436
O          3.67463       -1.72798        0.00015
O          2.04160       -0.47184       -1.39729
O          1.73354       -0.59288        1.03750
H          1.98757        0.88202        1.01038
C          1.27351       -2.75626       -0.34353
H          1.63203       -3.31520       -1.20887
H          1.39904       -3.35051        0.56292
H          0.23558       -2.44578       -0.48540
S         -2.17114       -0.22394       -1.32076
O         -1.83337        0.98972       -0.52535
O         -3.54783       -0.25932       -1.81065
O         -1.78596       -1.47125       -0.55224
H         -1.95187       -1.51023        0.91944
C         -1.07257       -0.24371       -2.72560
H         -1.22956        0.68056       -3.28349
H         -0.04159       -0.32713       -2.37109
H         -1.33914       -1.10469       -3.33957
H          2.85461        3.46864       -0.28276
H          3.05966        1.79235       -0.89290
H          1.12895        3.02998       -2.01060
H          0.70415        1.51001       -1.21732
H         -0.05284        4.16325       -0.34098
H         -0.84061        2.71237       -0.25090
H          2.93451        2.15921        1.64647
H          1.30043        2.43912        1.32253
C          2.39707        2.47818       -0.36342
C          1.02600        2.53738       -1.03722
N          2.16468        1.96234        1.01279
N          0.05989        3.17593       -0.14323
H         -1.07016       -1.11009        3.78918
H         -0.00753       -1.42413        2.37398
H         -0.22347        1.05200        3.07522
H         -0.49222        0.65361        1.36631
H         -2.37697        1.82355        3.10581
H         -2.50630        1.45110        1.49310
H         -2.31977       -2.46696        2.30461
H         -2.87702       -0.88222        2.19800
C         -0.92521       -0.94397        2.71789
C         -0.89912        0.55042        2.37443
N         -2.09193       -1.52336        2.00366
N         -2.25428        1.09791        2.41331
