35
2msa1ma1dma_343.log	Energy: -978608.5725023
S          1.25022       -1.25318        0.17230
O          0.27952       -0.93422        1.24298
O          2.53241       -1.79612        0.70551
O          1.52069       -0.07216       -0.71729
H          2.97734        0.55683       -0.27487
C          0.51792       -2.49596       -0.86255
H          0.28360       -3.35660       -0.23521
H         -0.38701       -2.06200       -1.29332
H          1.23778       -2.76292       -1.63598
S         -2.95842       -0.35834       -0.17624
O         -4.17947       -1.09037       -0.44668
O         -1.89803       -0.32500       -1.18275
O         -2.35156       -0.93642        1.17674
H         -1.35367       -0.88964        1.17474
C         -3.36526        1.31294        0.26886
H         -3.83630        1.76680       -0.60455
H         -4.06423        1.27803        1.10462
H         -2.43075        1.82529        0.52448
N          3.92002        0.44398        0.20054
H          4.04070        1.16434        0.90916
C          5.03296        0.38915       -0.77033
H          5.96377        0.15172       -0.25582
H          4.80459       -0.38928       -1.49739
H          5.12067        1.34922       -1.27805
H          3.74142       -0.48011        0.65677
N         -0.23810        2.26963        0.16597
C          0.79178        2.52732        1.14875
C         -0.29774        3.27629       -0.87719
H         -0.06540        1.36198       -0.25908
H          0.55408        3.43488        1.71564
H          0.84464        1.68648        1.84542
H          1.79550        2.68061        0.69657
H         -0.60301        4.23897       -0.45046
H          0.66766        3.42828       -1.39455
H         -1.04010        2.98210       -1.62392
