35
2msa1ma1dma_214.log	Energy: -978619.9570175
S         -1.86002       -1.76092       -0.07884
O         -2.64247       -2.90232        0.34127
O         -0.92081       -1.35277        1.11259
O         -2.58698       -0.56703       -0.55109
H         -2.52835        1.11466       -0.36390
C         -0.73208       -2.23497       -1.36607
H         -0.15080       -3.08170       -1.00007
H         -1.33273       -2.52389       -2.22946
H         -0.09135       -1.37809       -1.59240
S          0.78973        1.50644       -0.32086
O          0.04542        2.69249       -0.84325
O          1.05579        0.46928       -1.32736
O          0.06456        0.96399        0.88586
H         -0.48812       -0.43117        0.98317
C          2.35079        2.10167        0.27856
H          2.87509        2.55172       -0.56536
H          2.15856        2.84368        1.05365
H          2.90011        1.23645        0.66954
N         -2.50642        2.14924       -0.23615
H         -1.54375        2.46264       -0.55192
C         -2.71398        2.48741        1.19172
H         -2.70545        3.57055        1.31225
H         -3.66322        2.07368        1.53167
H         -1.88674        2.04575        1.74633
H         -3.21529        2.56188       -0.83809
N          3.70014       -0.89236        0.81155
C          4.25532       -0.98878       -0.53143
C          2.52600       -1.73623        0.98766
H          4.40662       -1.13975        1.49575
H          3.52162       -0.59870       -1.24489
H          5.16068       -0.37894       -0.60254
H          4.50582       -2.02174       -0.82979
H          1.75887       -1.41578        0.27812
H          2.72543       -2.80809        0.81347
H          2.12112       -1.61337        1.99507
