32
2msa2ma_181.log	Energy: -953956.5658932
S         -2.26425       -0.80434       -0.03047
O         -2.57152        0.63523        0.10473
O         -1.74160       -1.47459        1.14439
O         -1.37655       -1.03344       -1.29189
H         -0.35880       -0.78409       -1.18109
C         -3.75775       -1.59814       -0.57236
H         -4.49094       -1.47186        0.22473
H         -4.09431       -1.11835       -1.49065
H         -3.54141       -2.65359       -0.73484
S          1.61288        0.70972       -0.49253
O          1.04249       -0.50523       -1.17186
O          1.31884        0.75016        0.94869
O          1.18356        1.96784       -1.18104
H         -0.07426        2.58062       -0.35309
C          3.36628        0.55650       -0.71944
H          3.66416       -0.39803       -0.27357
H          3.56971        0.56992       -1.79039
H          3.83889        1.40424       -0.22287
N         -0.93134        2.83522        0.22055
H         -1.41658        3.60196       -0.23963
C         -0.56184        3.16507        1.61817
H         -1.46570        3.35672        2.19643
H         -0.01900        2.30955        2.01820
H          0.08440        4.04286        1.62075
H         -1.55139        1.99725        0.19417
N          2.89727       -2.59009        0.24694
H          2.20795       -2.35775       -0.46325
C          2.26534       -2.58824        1.56796
H          1.47832       -3.34559        1.69583
H          3.02838       -2.75234        2.33542
H          1.81694       -1.60741        1.74307
H          3.27006       -3.50697        0.02626
