34
2msa1a1eda_347.log	Energy: -988680.4345949
S         -1.29602       -1.97204       -0.12062
O         -0.89085       -3.36752       -0.09222
O         -0.92670       -1.16899       -1.28387
O         -0.75757       -1.22732        1.19379
H          0.13013       -0.83049        1.00439
C         -3.03491       -1.83429        0.17679
H         -3.52484       -2.37953       -0.63158
H         -3.24893       -2.30527        1.13657
H         -3.31495       -0.77129        0.16005
S          2.14107        0.58390       -0.48563
O          1.48548        1.85288       -0.73182
O          1.67706       -0.22516        0.66146
O          3.68213        0.81234       -0.28578
H          4.02647        0.35757        0.59325
C          2.06964       -0.41071       -1.95120
H          1.01447       -0.63179       -2.12663
H          2.50695        0.16572       -2.76641
H          2.62821       -1.32881       -1.76945
N          4.40138       -0.33988        1.92506
H          5.08585       -1.08665        1.86102
H          3.51018       -0.74197        2.20874
H          4.70338        0.30525        2.64845
H         -3.52448        3.14567        1.17108
H         -3.24517        1.60779        2.00311
H         -1.10591        2.65500        1.48737
H         -1.28728        1.16976        0.54780
H         -1.57115        3.87579       -0.50426
H         -0.58313        2.66966       -0.99962
H         -4.86952        1.53080        0.08243
H         -3.56141        1.71475       -0.89414
C         -3.14257        2.11880        1.03846
C         -1.66636        2.18829        0.66284
N         -3.87045        1.37096        0.01359
N         -1.50248        2.86977       -0.61950
