38
2msa2dma_154.log	Energy: -1003279.4366934
S         -2.79573       -0.21425        0.75890
O         -3.71918       -0.06405        1.87186
O         -1.33891       -0.09344        1.17633
O         -3.02820        0.71286       -0.39081
H         -1.68267        1.50311       -0.76411
C         -2.96310       -1.86340        0.09959
H         -2.77759       -2.57197        0.90772
H         -3.98462       -1.96560       -0.26769
H         -2.24347       -1.99787       -0.71033
S          0.96597       -1.32915       -0.86550
O          1.27301        0.10681       -1.06483
O          0.00017       -1.89332       -1.79839
O          0.53500       -1.56908        0.61338
H         -0.30883       -0.97350        0.87280
C          2.49134       -2.22545       -0.90770
H          2.87152       -2.14951       -1.92721
H          3.17368       -1.74878       -0.19619
H          2.27827       -3.26299       -0.65125
N         -0.76938        2.00824       -0.95422
C         -0.44930        2.84898        0.21941
C         -0.86453        2.73931       -2.23214
H         -0.04655        1.26805       -1.03103
H         -1.22580        3.60622        0.33780
H         -0.43117        2.20065        1.09567
H          0.52173        3.32534        0.07212
H         -1.65763        3.48487       -2.16072
H          0.08764        3.22744       -2.44685
H         -1.10158        2.02778       -3.02300
N          3.73140        0.35271        0.80017
C          4.98910        1.07692        0.73251
C          3.05383        0.51285        2.07810
H          3.10981        0.65812        0.05701
H          5.69104        0.66152        1.46376
H          5.43315        0.95955       -0.26009
H          4.88808        2.15654        0.94400
H          3.65230        0.05138        2.87096
H          2.88832        1.56930        2.35564
H          2.08727        0.00449        2.04588
