32
2msa1a1dma_57.log	Energy: -953969.2242213
S          0.73704        1.42647        0.16939
O          0.46114        0.48063       -0.96635
O          2.19645        1.71676        0.22716
O          0.18337        0.92982        1.44644
H          0.61881       -1.12247        1.59990
C         -0.10520        2.93973       -0.22455
H          0.05888        3.64262        0.59238
H          0.30629        3.32390       -1.15789
H         -1.16346        2.69534       -0.33543
S         -2.84964       -0.49405       -0.24244
O         -3.92546       -1.36730       -0.66550
O         -2.84432        0.91031       -0.63181
O         -1.48415       -1.16296       -0.72708
H         -0.76669       -0.45561       -0.85499
C         -2.70409       -0.57891        1.53061
H         -3.61454       -0.14555        1.94674
H         -2.61702       -1.62767        1.81587
H         -1.82350       -0.00237        1.82154
N          0.92559       -1.98074        1.13501
H          0.17277       -2.22390        0.49300
H          0.99633       -2.71829        1.82822
H          2.30778       -1.35270        0.27497
N          3.12068       -0.84536       -0.19268
C          3.11394       -1.14955       -1.63847
C          4.37039       -1.19325        0.50696
H          2.90572        0.17183       -0.05680
H          3.22027       -2.22646       -1.78173
H          2.16456       -0.79965       -2.04412
H          3.94141       -0.62821       -2.12314
H          4.55795       -2.26376        0.40484
H          5.20164       -0.63191        0.07737
H          4.26395       -0.93744        1.56158
