34
2msa1a1eda_201.log	Energy: -988701.4706136
S         -0.28616        2.12623        0.01011
O         -1.26382        3.11245        0.42249
O         -0.74069        1.08710       -0.93320
O          0.27180        1.44128        1.31019
H          0.82030        0.59123        1.13402
C          1.13015        2.91843       -0.70565
H          0.79917        3.38809       -1.63251
H          1.48272        3.66603        0.00496
H          1.89040        2.15373       -0.88773
S          2.62004       -0.93066       -0.03967
O          3.07951        0.36797       -0.54451
O          2.25100       -1.93208       -1.05975
O          1.47910       -0.76252        0.95827
H         -0.01506       -1.61555        0.20242
C          3.94907       -1.63177        0.92001
H          4.78803       -1.80101        0.24451
H          4.21948       -0.91933        1.69925
H          3.60601       -2.57141        1.35259
N         -0.53064       -1.71140       -0.68753
H          0.13546       -2.16985       -1.31443
H         -0.67249       -0.73892       -1.00382
H         -1.46436       -2.19258       -0.58334
H         -4.87714       -1.95349        0.78586
H         -3.39865       -2.31771        1.68957
H         -3.86553        0.14253        1.52998
H         -2.30311       -0.30134        0.87277
H         -4.59735        0.59965       -0.63409
H         -2.99359        0.85337       -0.87918
H         -3.51056       -3.54711       -0.40587
H         -3.56386       -2.11876       -1.22307
C         -3.78061       -1.87032        0.76621
C         -3.38054       -0.39447        0.70413
N         -3.20504       -2.57963       -0.38678
N         -3.68511        0.15937       -0.61353
