40
2msa1dma1eda_282.log	Energy: -1038019.8536858
S          2.32511       -0.79390       -0.50830
O          2.47423       -1.91461        0.42674
O          2.54035        0.55105        0.12331
O          1.02491       -0.80938       -1.24342
C          3.60693       -0.93970       -1.73770
H          3.49116       -1.90702       -2.22676
H          3.49738       -0.12729       -2.45621
H          4.56903       -0.87753       -1.22913
S         -0.50260        2.36021       -0.01948
O         -0.99844        3.65181        0.41068
O         -1.47248        1.27659       -0.19708
O          0.60603        1.91334        1.02004
H          1.35909        1.32877        0.63098
C          0.39821        2.51926       -1.54646
H         -0.31451        2.88807       -2.28519
H          1.20933        3.23222       -1.39997
H          0.76928        1.52979       -1.82070
N         -3.09217       -1.93780       -1.10638
C         -2.41422       -1.44382       -2.30815
C         -4.13257       -1.01796       -0.64061
H         -3.50286       -2.84583       -1.29802
H         -1.90134       -0.50819       -2.06532
H         -1.66212       -2.16724       -2.63152
H         -3.11092       -1.25208       -3.13746
H         -3.66754       -0.06591       -0.36795
H         -4.89690       -0.81856       -1.40617
H         -4.62102       -1.43303        0.24486
H         -1.31527       -2.62682        2.28191
H          0.23679       -2.89825        1.43242
H          0.52789       -1.71888        3.65718
H          1.14806       -0.81540        2.28602
H         -1.04288       -0.06672        3.97952
H         -0.22524        0.84620        2.86830
H         -1.76989       -1.80970        0.11472
H         -1.31796       -0.46007        0.99495
C         -0.46230       -2.14387        1.79693
C          0.22768       -1.17027        2.75784
N         -0.97652       -1.36862        0.64612
N         -0.66344       -0.05051        3.04302
H         -0.23405       -1.16116       -0.05484
