31
2msa1tma_33.log	Energy: -943112.5557898
S         -0.69353        2.07031        0.06521
O         -0.43426        3.47886        0.25310
O         -0.09781        1.11830        1.02656
O         -0.24398        1.62290       -1.39088
H          0.49700        0.96062       -1.34756
C         -2.43580        1.76970        0.00286
H         -2.84649        2.12401        0.94951
H         -2.83743        2.35269       -0.82658
H         -2.60633        0.69291       -0.12916
S          2.55889       -0.65281       -0.10441
O          3.96138       -0.81659       -0.39296
O          1.65038       -0.23108       -1.18122
O          2.42664        0.36743        1.09986
H          1.50172        0.73903        1.14515
C          1.90931       -2.16567        0.57012
H          1.95692       -2.91785       -0.21808
H          2.53252       -2.45169        1.41726
H          0.87666       -1.99705        0.87762
N         -2.56197       -1.52370       -0.04213
C         -2.07046       -1.69309        1.31547
H         -1.24101       -1.00208        1.49383
H         -2.86323       -1.45500        2.03072
H         -1.73091       -2.72818        1.51385
C         -3.75602       -2.31788       -0.27842
H         -4.53777       -2.03118        0.43083
H         -4.12865       -2.13661       -1.29058
H         -3.56985       -3.40268       -0.16750
C         -1.52523       -1.82392       -1.01558
H         -1.89884       -1.64275       -2.02718
H         -0.66012       -1.17544       -0.85614
H         -1.18569       -2.87633       -0.95624
