25
2msa1ma_91.log	Energy: -893785.4804627
S         -2.18627       -0.60043       -0.04875
O         -3.10398       -1.71867       -0.01572
O         -1.13791       -0.55617       -1.06926
O         -1.47298       -0.52854        1.38428
H         -0.52579       -0.28282        1.28115
C         -3.09477        0.92199       -0.08699
H         -3.65195        0.93322       -1.02508
H         -3.77604        0.92571        0.76392
H         -2.36492        1.73905       -0.04798
S          2.16906       -0.55178        0.13087
O          1.21907       -0.07739        1.12831
O          3.57497       -0.63443        0.47482
O          2.04257        0.43857       -1.14882
H          2.91846        0.81315       -1.32368
C          1.58080       -2.07278       -0.55989
H          1.53378       -2.79043        0.26068
H          0.58893       -1.88485       -0.97762
H          2.29249       -2.39610       -1.31898
N         -0.33718        2.64506       -0.52202
H          0.03310        1.78862       -0.92519
C          0.60768        3.20687        0.44141
H          1.58595        3.47699        0.01510
H          0.17678        4.10434        0.89399
H          0.77865        2.47949        1.23802
H         -0.48998        3.29014       -1.29012
