42
2msa2eda_270.log	Energy: -1072756.1599013
S          0.02001        2.06747        0.68448
O          0.89789        1.52097        1.72830
O         -1.38438        1.57524        0.75254
O          0.56567        1.86851       -0.70147
C         -0.06102        3.83269        0.92158
H         -0.48028        4.01858        1.91059
H          0.95163        4.23015        0.85094
H         -0.69747        4.25694        0.14510
S          2.77848       -0.82490       -0.65954
O          3.85008       -1.52077       -1.33881
O          1.41602       -1.37022       -0.76787
O          2.77693        0.66630       -1.16692
H          1.90908        1.15086       -0.94578
C          3.15364       -0.68161        1.07107
H          3.14082       -1.68992        1.48701
H          4.14595       -0.23966        1.16197
H          2.39337       -0.04542        1.53166
H         -1.23817        0.96108       -2.44594
H         -1.30790       -0.65151       -3.17434
H         -3.47474        0.64624       -3.32466
H         -3.62986       -0.95239       -2.58745
H         -3.35179        1.45716       -0.91496
H         -4.76071        0.65580       -1.21060
H         -0.23111       -0.74581       -1.06495
H         -1.45811        0.09745       -0.32523
C         -1.69669       -0.02849       -2.36628
C         -3.21818        0.05202       -2.43348
N         -1.25166       -0.58904       -1.07374
N         -3.75342        0.56244       -1.18047
H         -1.71457       -1.48850       -0.77576
H         -1.65242       -3.73519        2.14917
H         -0.42242       -3.55565        0.88160
H         -0.08814       -2.00387        2.82243
H         -0.21687       -1.17736        1.28956
H         -2.07610       -1.04373        3.47258
H         -1.81581        0.01876        2.24012
H         -2.71826       -3.61746        0.01154
H         -3.02494       -2.21892        0.82810
C         -1.26910       -3.06084        1.36879
C         -0.79243       -1.75704        2.01689
N         -2.29801       -2.76303        0.36111
N         -1.93006       -0.96311        2.47464
