35
2msa1a1tma_14.log	Energy: -978628.7773094
S         -1.11081       -2.25854       -0.07168
O         -1.34433       -3.66512       -0.31740
O         -2.35093       -1.45634       -0.60482
O          0.12063       -1.65562       -0.61342
H          0.57435       -0.19751       -1.63502
C         -1.12461       -1.93973        1.67656
H         -2.04942       -2.35022        2.08217
H         -0.25936       -2.44774        2.10501
H         -1.06969       -0.85745        1.82409
S         -1.27954        1.93228        0.09837
O         -0.04978        2.59394       -0.42098
O         -1.11138        1.28476        1.40765
O         -1.83649        1.00393       -0.94350
H         -2.15229       -0.45577       -0.70182
C         -2.49382        3.22216        0.29196
H         -2.11025        3.93943        1.01790
H         -2.65002        3.69626       -0.67683
H         -3.41494        2.76456        0.65328
N          1.19977        0.60243       -1.82248
H          0.72608        1.46153       -1.45789
H          1.39985        0.67885       -2.81431
H          2.07899        0.43957       -1.22463
N          3.13754        0.13114        0.06676
C          3.43813       -1.30065        0.06994
H          2.50363       -1.86394        0.00676
H          4.05735       -1.55010       -0.79680
H          3.97932       -1.59993        0.98231
C          4.35675        0.93373        0.06481
H          4.96562        0.68154       -0.80831
H          4.09930        1.99540        0.01712
H          4.95971        0.76230        0.97142
C          2.27403        0.48571        1.19807
H          2.00054        1.54200        1.14133
H          1.35069       -0.09569        1.14715
H          2.77023        0.29040        2.16192
