35
2msa1ma1dma_311.log	Energy: -978610.8127236
S         -2.41261       -0.23124       -0.02921
O         -1.97879        1.00967       -0.65641
O         -3.02468       -1.25182       -0.88544
O         -3.42222        0.09141        1.14719
H         -4.38187       -0.21614        0.87193
C         -1.05094       -0.93582        0.85741
H         -0.26591       -1.15525        0.13035
H         -0.67427       -0.19931        1.56877
H         -1.40118       -1.83865        1.35700
S          2.06583        0.91775        0.21577
O          1.57424        0.92636        1.59673
O          1.89739       -0.37641       -0.49435
O          3.52060        1.35581        0.11522
H          4.36732        0.23025       -0.03803
C          1.16345        2.15253       -0.69366
H          0.10727        1.87263       -0.68506
H          1.31540        3.11129       -0.19731
H          1.54901        2.17824       -1.71300
N         -5.72288       -0.71003        0.24294
H         -5.39464       -1.54099       -0.24444
C         -6.19137        0.29087       -0.72591
H         -7.04154       -0.05383       -1.32478
H         -6.47666        1.20036       -0.19298
H         -5.36531        0.53504       -1.39713
H         -6.46436       -0.98574        0.87860
N          4.96752       -0.71015       -0.15182
C          4.76037       -1.22044       -1.52571
C          4.51676       -1.64862        0.90196
H          5.94674       -0.47106       -0.00803
H          3.68443       -1.33703       -1.66590
H          5.13921       -0.48380       -2.23492
H          5.27891       -2.17281       -1.65750
H          3.45258       -1.82938        0.74389
H          5.08166       -2.58155        0.84313
H          4.65733       -1.17637        1.87463
