25
2msa1ma_15.log	Energy: -893810.3754639
S          2.22594       -0.46026       -0.11015
O          3.39776       -0.82374       -0.88868
O          0.99185       -0.20181       -0.95275
O          2.41593        0.69686        0.81846
H          1.19341        1.70023        0.83926
C          1.78779       -1.84807        0.92638
H          1.62027       -2.71378        0.28456
H          2.62199       -2.03249        1.60369
H          0.88417       -1.59695        1.48422
S         -2.15017       -0.28074       -0.04687
O         -2.57515        0.78102       -0.94703
O         -1.54340        0.16923        1.22297
O         -1.19875       -1.29659       -0.74827
H         -0.22777       -0.87970       -0.86491
C         -3.52250       -1.33696        0.33552
H         -4.27079       -0.71706        0.82992
H         -3.91148       -1.74028       -0.59918
H         -3.17656       -2.13151        0.99561
N          0.28522        2.25977        0.80305
H         -0.46582        1.57374        1.01268
C          0.09454        2.85867       -0.54170
H         -0.89039        3.31982       -0.60331
H          0.87909        3.59494       -0.71518
H          0.17522        2.05472       -1.27186
H          0.29483        2.96449        1.53657
