41
2msa1dma1tma_14.log	Energy: -1027955.9757225
S          2.31897        0.82753       -0.53066
O          1.39689        1.95736       -0.75177
O          2.02950       -0.37687       -1.33933
O          2.44334        0.47800        0.92802
H          1.72386       -0.98671        1.16305
C          3.93967        1.39635       -1.02161
H          3.89626        1.64915       -2.08136
H          4.19070        2.27465       -0.42643
H          4.65640        0.59365       -0.84707
S         -2.03885       -1.18347       -0.78768
O         -3.24099       -2.01072       -0.83647
O         -1.33867       -1.22524        0.54679
O         -2.25100        0.24371       -1.18536
H         -1.70749        1.27786       -0.09262
C         -0.86948       -1.82893       -1.97113
H         -1.32365       -1.74162       -2.95868
H          0.05265       -1.24402       -1.91400
H         -0.69291       -2.88007       -1.73532
N          1.14278       -1.86111        1.26386
C          0.95240       -2.17696        2.69041
C          1.74239       -2.95189        0.47059
H          0.20076       -1.61245        0.86126
H          1.91635       -2.40577        3.14832
H          0.51128       -1.31034        3.18326
H          0.27762       -3.02919        2.78649
H          2.69636       -3.24078        0.91605
H          1.06265       -3.80647        0.46169
H          1.90675       -2.57274       -0.53822
N         -1.70816        2.04654        0.64227
C         -1.36265        3.31013       -0.05362
H         -0.35842        3.20279       -0.46472
H         -2.08378        3.46914       -0.85623
H         -1.40665        4.13480        0.66242
C         -3.09650        2.04989        1.15918
H         -3.78127        2.21669        0.32792
H         -3.30332        1.07329        1.59791
H         -3.20209        2.83740        1.90942
C         -0.73149        1.71358        1.70763
H         -0.98103        0.72358        2.08968
H          0.26925        1.70506        1.27640
H         -0.80304        2.46624        2.49747
