32
2msa1a1dma_83.log	Energy: -953959.3437395
S         -2.13558       -0.49165       -0.29335
O         -1.07017        0.12290       -1.14650
O         -2.20564        0.13840        1.04817
O         -2.01047       -1.97097       -0.21638
H         -1.12376       -2.33767        1.30731
C         -3.66497       -0.14085       -1.13072
H         -3.76651        0.94117       -1.21426
H         -3.62148       -0.60387       -2.11639
H         -4.47794       -0.56210       -0.53945
S          2.27414       -0.80845       -0.26341
O          3.25759       -1.86016       -0.40785
O          1.53500       -0.72756        1.01417
O          1.24661       -0.95037       -1.44407
H          0.34009       -0.52142       -1.27717
C          3.01936        0.77758       -0.52275
H          3.77249        0.90408        0.25646
H          3.48528        0.76325       -1.50835
H          2.22964        1.53988       -0.44384
N         -0.63841       -1.88469        2.11080
H         -0.57525       -2.47656        2.93279
H         -1.20193       -1.03303        2.26510
H          0.29927       -1.57356        1.76674
N          0.36510        2.51614        0.13351
C         -0.13822        3.75687       -0.43165
C          0.43699        2.54604        1.58529
H         -0.23851        1.75068       -0.15712
H          0.58207        4.56400       -0.25447
H         -0.25972        3.64368       -1.51226
H         -1.10648        4.07070       -0.00354
H          1.15213        3.31465        1.90177
H         -0.53199        2.76267        2.06558
H          0.79648        1.57894        1.94764
