25
2msa1ma_11.log	Energy: -893810.9433725
S         -2.05957       -0.45574        0.01902
O         -2.31902        0.64220       -0.96145
O         -1.66480        0.04286        1.34214
O         -1.09415       -1.46246       -0.53722
C         -3.59782       -1.33738        0.17170
H         -4.35121       -0.63557        0.52942
H         -3.86625       -1.73088       -0.80845
H         -3.45054       -2.14560        0.88811
S          2.13958       -0.32676        0.05182
O          2.13602        0.39941        1.31189
O          1.77074        0.46605       -1.13945
O          1.28980       -1.62647        0.11125
H          0.26858       -1.50658       -0.13228
C          3.74828       -1.02324       -0.22570
H          4.45742       -0.19555       -0.25163
H          3.97197       -1.69568        0.60225
H          3.73519       -1.55810       -1.17461
N         -0.24563        2.32298       -0.73867
H         -1.12451        1.74377       -0.87768
H          0.54926        1.68072       -0.94505
C         -0.15766        2.81884        0.65947
H          0.80597        3.30398        0.81086
H         -0.97494        3.51654        0.84077
H         -0.25438        1.95947        1.32277
H         -0.23288        3.08069       -1.41721
