28
2msa1dma_32.log	Energy: -918461.8266456
S         -2.01039       -1.02037        0.02836
O         -3.14884       -1.61044        0.72658
O         -0.86890       -0.62184        0.90580
O         -2.37305        0.14352       -0.86041
H         -1.48525        1.33296       -0.44802
C         -1.36374       -2.25857       -1.08737
H         -1.10623       -3.14039       -0.49879
H         -2.14313       -2.50258       -1.80978
H         -0.48030       -1.85458       -1.58306
S          2.31019       -0.24287       -0.03884
O          1.89206       -0.91056       -1.25928
O          1.85935        1.11646        0.23093
O          3.93368       -0.18143       -0.06442
H          4.23204       -0.54583       -0.91038
C          2.02694       -1.25422        1.38416
H          0.93704       -1.30350        1.49154
H          2.46538       -2.23356        1.19385
H          2.49621       -0.76782        2.23945
N         -0.82949        2.09748       -0.06784
C         -1.36052        2.55386        1.23277
C         -0.64459        3.16259       -1.06879
H          0.06582        1.61587        0.09411
H         -2.34381        3.00035        1.07771
H         -1.44855        1.67855        1.87672
H         -0.67967        3.28627        1.67134
H         -1.60765        3.63402       -1.27008
H          0.06303        3.90504       -0.69484
H         -0.25824        2.71700       -1.98551
