40
2msa1dma1eda_79.log	Energy: -1038033.9461303
S          2.96963       -0.56761       -0.14170
O          2.75391       -0.91788        1.27095
O          3.54601        0.76328       -0.39579
O          1.68813       -0.75592       -0.93642
C          4.10968       -1.76088       -0.82312
H          5.05618       -1.65213       -0.29296
H          3.70026       -2.75998       -0.67179
H          4.23784       -1.54944       -1.88467
S         -3.23547        0.22783       -0.05867
O         -3.12364        1.56419        0.53847
O         -3.35500       -0.90285        0.88073
O         -2.08963       -0.03416       -1.02566
C         -4.70131        0.22216       -1.07789
H         -5.55582        0.40581       -0.42584
H         -4.60976        1.01563       -1.81974
H         -4.78797       -0.75174       -1.55950
N         -0.49135       -1.92581        0.20443
C         -1.00513       -3.24692       -0.20625
C         -0.38251       -1.75297        1.67195
H          0.43132       -1.70962       -0.23311
H         -1.99648       -3.38033        0.22900
H         -1.07471       -3.27441       -1.29390
H         -0.32655       -4.02611        0.14460
H         -1.38852       -1.71304        2.09003
H          0.19555       -2.58009        2.08525
H          0.16084       -0.82973        1.87112
H         -1.13936       -1.20473       -0.19083
H         -0.72810        2.95045        0.50908
H         -0.35537        1.40562        1.25969
H          1.26441        3.37770        1.81304
H          2.02423        1.86382        1.32001
H          2.29643        4.30721        0.02979
H          2.85248        2.82998       -0.45404
H         -0.81572        1.19104       -1.08498
H          0.49683        2.27513       -1.40719
C          0.02202        2.16039        0.56824
C          1.39918        2.69158        0.97152
N          0.11203        1.55584       -0.78681
N          2.02760        3.35407       -0.17321
H          0.76782        0.74332       -0.82300
