30
2msa1eda_108.log	Energy: -953194.7070234
S         -2.15093       -1.14103        0.02677
O         -3.17747       -0.35059       -0.67839
O         -2.14374       -0.97733        1.49164
O         -0.76962       -0.88366       -0.53915
C         -2.48601       -2.85823       -0.33074
H         -3.48543       -3.08315        0.04261
H         -2.43825       -3.00089       -1.41044
H         -1.74181       -3.47102        0.17856
S          2.85970       -0.14304       -0.01348
O          2.64426        0.71851       -1.16583
O          2.43372        0.32586        1.29713
O          4.44914       -0.45572        0.06586
H          4.90934        0.17360       -0.50874
C          2.21804       -1.76691       -0.29096
H          1.12697       -1.65844       -0.35311
H          2.63271       -2.14166       -1.22630
H          2.50894       -2.39013        0.55496
H         -0.02519        3.43388        0.47454
H          0.59949        2.37112       -0.81757
H         -1.64837        3.49553       -1.37039
H         -1.66698        1.73107       -1.47578
H         -3.20539        3.30850        0.29075
H         -3.21956        1.66486        0.06376
H          0.62531        1.29995        1.39868
H         -1.06646        1.46265        1.42695
C         -0.21237        2.52535       -0.10387
C         -1.58580        2.57407       -0.78216
N         -0.22546        1.38016        0.83823
N         -2.63143        2.47897        0.23186
H         -0.34089        0.47304        0.30453
