40
2msa1dma1eda_177.log	Energy: -1038022.0463105
S         -1.05095        1.96705        0.20804
O         -2.14212        1.57567        1.11188
O         -1.19416        1.45505       -1.18135
O          0.29416        1.59870        0.77349
C         -1.06151        3.74485        0.08983
H         -2.02867        4.04868       -0.31112
H         -0.91392        4.15062        1.09072
H         -0.25484        4.04891       -0.57737
S          2.93885       -0.35700       -0.23368
O          2.20481       -1.42366       -0.93078
O          3.11931       -0.50972        1.20061
O          2.31420        1.03683       -0.58667
H          1.46993        1.27443       -0.02497
C          4.51684       -0.18174       -1.02859
H          4.35194        0.01256       -2.08788
H          5.04895        0.64098       -0.55223
H          5.04696       -1.12362       -0.88495
N         -1.22643       -1.20854        1.85549
C          0.02580       -1.25871        2.61173
C         -2.21529       -2.16618        2.33840
H         -1.61278       -0.26388        1.90549
H          0.51633       -2.22359        2.44687
H          0.69559       -0.47158        2.26296
H         -0.13632       -1.13349        3.69218
H         -1.85454       -3.18647        2.16805
H         -2.41935       -2.05458        3.41365
H         -3.15555       -2.03587        1.79572
H         -1.19223       -2.36301       -2.57253
H         -1.47160       -3.19772       -1.02268
H         -3.60812       -2.52416       -1.90620
H         -3.26896       -1.50905       -0.50062
H         -4.08204       -0.39710       -2.64228
H         -2.72029        0.27511       -2.02785
H          0.37016       -1.53149       -0.95273
H         -0.74708       -0.32507       -1.18612
C         -1.53596       -2.23844       -1.54353
C         -2.96778       -1.71523       -1.54106
N         -0.62783       -1.29670       -0.84665
N         -3.10677       -0.57487       -2.43521
H         -0.85498       -1.28105        0.21049
