37
2msa1ma1eda_193.log	Energy: -1013362.0013428
S          0.62261       -2.02688       -0.09262
O         -0.67380       -2.32271        0.53548
O          1.74650       -1.79093        0.82726
O          0.50695       -0.86995       -1.07567
C          1.04735       -3.43477       -1.10400
H          1.13615       -4.29860       -0.44459
H          0.25102       -3.58810       -1.83264
H          1.99556       -3.23107       -1.60144
S         -2.46146        0.86002       -0.60245
O         -3.44007        1.76582       -1.16794
O         -1.43001        1.40153        0.28944
O         -1.75493        0.11382       -1.80325
H         -0.88621       -0.32385       -1.51247
C         -3.29284       -0.45446        0.25904
H         -3.78530       -0.01144        1.12576
H         -4.02756       -0.88507       -0.42140
H         -2.54357       -1.19319        0.55457
N          0.04802        1.42227        2.80330
H          0.32232        1.96514        3.61542
C         -0.18538        0.01567        3.16591
H         -0.91620       -0.10605        3.97484
H         -0.54361       -0.52471        2.28764
H          0.75727       -0.44721        3.46537
H         -0.80974        1.82498        2.43267
H          3.29159        1.91494        1.10029
H          3.03905        0.16537        0.83686
H          4.53200        1.12070       -0.93543
H          3.01272        0.51145       -1.60329
H          3.72449        3.32563       -1.25836
H          3.04084        2.58065       -2.54577
H          0.95434        1.43667        1.32125
H          1.21174        2.22296       -0.17156
C          2.86999        1.16247        0.42651
C          3.44900        1.29574       -0.97701
N          1.40911        1.37241        0.36191
N          3.07633        2.59643       -1.53422
H          0.96454        0.58409       -0.14890
