29
2msa1a1ma_02.log	Energy: -929319.8218015
S         -2.66208       -0.18809       -0.16611
O         -2.26577       -1.31376       -1.03407
O         -2.55504        1.14946       -0.81106
O         -1.93266       -0.22107        1.14450
C         -4.39141       -0.39050        0.21564
H         -4.94710       -0.34712       -0.72124
H         -4.52417       -1.35929        0.69734
H         -4.69301        0.41747        0.88208
S          2.70141       -0.15225        0.00849
O          2.98331        1.15377        0.61743
O          1.53227       -0.10221       -0.93504
O          2.52243       -1.27268        0.97720
C          4.11575       -0.59316       -0.98503
H          4.26544        0.18745       -1.73115
H          4.97898       -0.66123       -0.32250
H          3.92048       -1.55287       -1.46334
N         -0.02989       -2.10601        0.60424
H         -0.69759       -1.41869        1.02801
H         -0.25923       -3.04851        0.90505
H         -0.19396       -2.01560       -0.40248
H          0.96987       -1.85490        0.82155
N         -0.02968        2.08109       -0.49408
H         -1.01404        1.80738       -0.73810
H          0.58539        1.25165       -0.70105
C          0.05194        2.43437        0.94666
H          1.10096        2.52147        1.22792
H         -0.48842        3.36540        1.11888
H         -0.42580        1.62744        1.50304
H          0.27580        2.84757       -1.08851
