29
2msa1a1ma_77.log	Energy: -929299.4147543
S         -1.97433       -0.49545       -0.30721
O         -0.98443        0.29108       -1.09743
O         -1.94243       -0.14554        1.13922
O         -1.85012       -1.96098       -0.52392
H         -0.82300       -2.58919        0.80128
C         -3.56535       -0.00192       -0.93028
H         -3.66929        1.07181       -0.77278
H         -3.60246       -0.24271       -1.99265
H         -4.33029       -0.55020       -0.38048
S          2.43929       -0.25536       -0.22082
O          3.70357       -0.83390       -0.62000
O          1.78299       -0.80697        0.98183
O          1.46336       -0.37763       -1.44773
H          0.49826       -0.12623       -1.25139
C          2.60750        1.48901        0.04173
H          3.34973        1.61442        0.83178
H          2.96494        1.92831       -0.88996
H          1.63695        1.90095        0.35710
N         -0.31591       -2.33034        1.67516
H          0.59115       -1.88318        1.40289
H         -0.18565       -3.10908        2.31293
H         -0.90464       -1.58157        2.06841
N         -0.28902        2.57529        1.17549
H         -0.75872        1.67947        1.29302
C         -0.97591        3.36236        0.15296
H         -2.03431        3.56959        0.37430
H         -0.46556        4.32133        0.02002
H         -0.92988        2.82016       -0.79468
H         -0.32305        3.04914        2.07191
