35
2msa1ma1dma_156.log	Energy: -978621.0177846
S         -1.82073        0.56603       -0.67693
O         -1.24892       -0.62167       -1.39974
O         -1.67392        1.82681       -1.41325
O         -1.26460        0.65121        0.71395
H         -0.00540        1.69330        0.77472
C         -3.54733        0.18816       -0.50048
H         -3.95877        0.03422       -1.49822
H         -3.62603       -0.71130        0.11745
H         -4.02333        1.04018       -0.01410
S          2.05633       -0.92544       -0.30097
O          1.96178       -0.92306        1.15500
O          2.20396        0.40465       -0.92317
O          0.89905       -1.71123       -0.96369
H         -0.01624       -1.17222       -1.11263
C          3.43844       -1.92488       -0.79330
H          3.28951       -2.92792       -0.39409
H          3.48780       -1.93684       -1.88154
H          4.33147       -1.46842       -0.36587
N         -2.43776       -2.04002        1.76730
H         -1.87181       -1.19446        1.75339
C         -1.73573       -3.12579        1.08417
H         -0.74641       -3.36185        1.50239
H         -2.34850       -4.03209        1.11502
H         -1.59747       -2.85496        0.03452
H         -2.60340       -2.27772        2.73910
N          0.87729        2.26607        0.68627
C          1.58721        2.27342        1.98212
C          0.54656        3.59764        0.13648
H          1.43860        1.72479        0.00187
H          0.95333        2.74777        2.73271
H          1.79269        1.23810        2.25720
H          2.52242        2.82709        1.88088
H         -0.05489        4.14284        0.86555
H          1.46917        4.14357       -0.06806
H         -0.03275        3.44929       -0.77555
