29
2msa1a1ma_44.log	Energy: -929306.8564519
S          2.05160       -0.62316       -0.05881
O          1.15822       -1.57665        0.67590
O          2.56310        0.46039        0.81043
O          1.41329       -0.10368       -1.29474
C          3.44356       -1.61147       -0.56346
H          3.90715       -2.02461        0.33223
H          3.07654       -2.40603       -1.21300
H          4.13947       -0.96481       -1.09802
S         -2.12821       -0.60899       -0.24591
O         -1.96854       -1.49510       -1.38242
O         -1.90547        0.82511       -0.44101
O         -1.27555       -1.09841        0.99130
H         -0.28155       -1.31885        0.77217
C         -3.75343       -0.82185        0.44788
H         -4.46361       -0.47071       -0.30148
H         -3.90281       -1.88130        0.65354
H         -3.82918       -0.22829        1.35850
N          0.07525        1.46286        2.23678
H         -0.13723        1.97480        3.08582
H          1.00428        1.05007        2.32341
H         -0.58319        0.69069        2.15356
N          0.58291        2.34832       -0.36148
H          0.63452        1.44177       -0.87281
H          0.23147        2.11528        0.61505
C         -0.23878        3.35762       -1.05533
H         -0.26640        4.27455       -0.46532
H          0.18736        3.56272       -2.03775
H         -1.24193        2.94944       -1.16492
H          1.55523        2.63231       -0.24266
