40
2msa1dma1eda_529.log	Energy: -1038005.6174161
S          0.00185       -2.26062        0.07753
O         -0.00473       -3.62493        0.58673
O          0.68014       -1.29307        1.02015
O         -1.35218       -1.72972       -0.29963
H         -2.47797       -1.19221        0.56424
C          0.93998       -2.20258       -1.43149
H          1.98401       -2.41149       -1.19416
H          0.52634       -2.95019       -2.10882
H          0.84538       -1.19679       -1.84241
S          0.29429        1.97189        0.09533
O         -0.77182        2.95592       -0.03031
O          0.67265        1.19326       -1.08218
O         -0.08693        1.00604        1.26882
H          0.25367       -0.00354        1.12373
C          1.75127        2.78783        0.71117
H          2.07688        3.49667       -0.05083
H          1.49211        3.30353        1.63556
H          2.51925        2.03320        0.88648
N          3.49955       -0.28240       -0.46516
C          4.30556        0.68987       -1.17447
C          3.93947       -0.52563        0.89482
H          2.52250       -0.01031       -0.48647
H          5.31335        0.28912       -1.33301
H          3.86154        0.89095       -2.15273
H          4.41645        1.65423       -0.64082
H          4.91439       -1.02625        0.88351
H          4.05609        0.39824        1.49611
H          3.21968       -1.17482        1.39796
H         -4.14697        1.21319        1.24904
H         -2.36027        1.11561        1.22659
H         -3.23975        2.09016       -0.91515
H         -2.37887        0.57603       -1.16845
H         -5.26027        0.96226       -1.35960
H         -4.27212        0.02464       -2.26370
H         -3.51480       -0.99591        1.91756
H         -4.14590       -1.03925        0.35972
C         -3.27910        0.75676        0.76433
C         -3.28560        1.01161       -0.73905
N         -3.36695       -0.71909        0.95046
N         -4.45678        0.34515       -1.32110
