42
2msa2eda_609.log	Energy: -1072733.9988898
S         -2.84367       -1.20744        0.33479
O         -3.96161       -1.59726        1.17029
O         -2.24892       -2.18413       -0.57486
O         -1.69289       -0.64796        1.28915
H         -0.79253       -0.98378        1.01006
C         -3.28959        0.24148       -0.58780
H         -4.12634       -0.04045       -1.22878
H         -3.57620        1.03078        0.10897
H         -2.43156        0.56915       -1.17871
S          1.43472       -1.60133       -0.54104
O          1.24476       -0.46134       -1.45314
O          0.74897       -1.41329        0.77916
O          2.88584       -1.89639       -0.27417
H          3.23912       -1.08821        1.00105
C          0.75332       -3.05240       -1.29953
H         -0.32025       -2.88698       -1.40706
H          1.24345       -3.18479       -2.26413
H          0.94859       -3.89776       -0.64002
H         -0.87450        4.59583       -0.25803
H         -1.38396        4.02983        1.33824
H          0.49499        2.72511        0.51775
H         -0.94569        1.69420        0.68733
H          0.02539        2.77540       -1.86265
H         -0.01000        1.19715       -1.40540
H         -3.28367        4.35574       -0.14562
H         -2.70159        3.17874       -1.13261
C         -1.36230        3.76034        0.27648
C         -0.50496        2.51154        0.10682
N         -2.72821        3.50815       -0.17162
N         -0.47414        2.09685       -1.29553
H          1.83195        0.84598        0.94549
H          2.89249        1.69537        2.08574
H          4.70776        1.74816        0.47465
H          3.96731        0.45744       -0.49601
H          3.69143        2.85862       -1.28123
H          2.31339        1.97852       -1.17680
H          4.16871       -0.37196        2.27281
H          2.55258       -0.72203        2.47974
C          2.86358        0.95736        1.28228
C          3.75447        1.35255        0.10582
N          3.25558       -0.38178        1.82217
N          3.06332        2.39934       -0.63227
