43
2msa1eda1tma_178.log	Energy: -1062675.4232246
S         -1.64019        1.89075       -0.40397
O         -2.49131        1.40094       -1.49409
O         -0.25411        1.31487       -0.41784
O         -2.24892        1.74712        0.95411
H         -1.96470        0.28903        1.63869
C         -1.41138        3.64275       -0.63704
H         -0.96079        3.79402       -1.61810
H         -2.39072        4.11863       -0.58507
H         -0.75710        4.01297        0.15217
S          0.89951       -2.01305       -0.53922
O          0.29334       -3.22777       -1.05847
O          0.58902       -1.63382        0.85075
O          0.58229       -0.81587       -1.50395
H          0.17721        0.00275       -1.04252
C          2.66255       -2.12649       -0.67494
H          2.98081       -2.96268       -0.05093
H          2.90240       -2.31463       -1.72177
H          3.07510       -1.17109       -0.32340
H         -2.63182       -2.60922        1.90638
H         -3.71750       -1.31089        2.45977
H         -4.26791       -2.10984        0.12946
H         -3.88198       -0.38673        0.20366
H         -2.17282       -2.43592       -0.97042
H         -2.43285       -0.84776       -1.40362
H         -1.45783       -0.70689        2.91339
H         -0.96749       -1.03616        1.35923
C         -2.94941       -1.57795        1.72984
C         -3.45490       -1.38938        0.29752
N         -1.76524       -0.70406        1.94387
N         -2.34817       -1.49838       -0.63062
N          3.40332        0.87679        0.45173
C          4.79496        0.88385        0.86256
H          4.95964        0.12105        1.63043
H          5.43788        0.65320        0.00699
H          5.11004        1.86137        1.27618
C          3.16016        1.83013       -0.61941
H          3.77290        1.57322       -1.48954
H          2.10749        1.79474       -0.90938
H          3.40470        2.86760       -0.31921
C          2.51447        1.11231        1.57894
H          1.47738        1.08758        1.23671
H          2.65322        0.32566        2.32726
H          2.70495        2.09116        2.06092
