25
2msa1ma_42.log	Energy: -893798.0531923
S          2.48111       -0.14364        0.02023
O          2.15837        1.25888        0.24259
O          3.84616       -0.52900       -0.28402
O          1.54969       -0.63932       -1.21768
H          2.12888       -1.00024       -1.90496
C          1.81150       -1.10685        1.34590
H          2.31891       -0.77890        2.25447
H          0.73398       -0.90522        1.39548
H          2.02291       -2.15663        1.14289
S         -2.15593       -0.66358        0.03296
O         -3.49820       -0.86344        0.56871
O         -1.15816       -0.17630        1.05779
O         -2.08378        0.19969       -1.18607
H         -1.00724        1.57936       -0.92044
C         -1.54072       -2.26313       -0.47691
H         -1.53842       -2.92055        0.39353
H         -2.21522       -2.65065       -1.24101
H         -0.53512       -2.13463       -0.87887
N         -0.54017        2.11795       -0.15672
H         -0.68049        1.42705        0.61951
C         -1.19577        3.41467        0.09449
H         -0.75151        3.88387        0.97201
H         -1.07380        4.06272       -0.77331
H         -2.25613        3.23373        0.26946
H          0.46878        2.17776       -0.31420
