22
2msa1a_18.log	Energy: -869136.3113950
S         -2.36808       -0.02867        0.05507
O         -1.50280        0.91977        0.73418
O         -3.81086        0.08200        0.17210
O         -1.95520       -1.50085        0.60834
H         -2.76768       -1.96129        0.86428
C         -1.88099       -0.14913       -1.64415
H         -2.11589        0.81232       -2.10364
H         -0.80465       -0.33892       -1.67078
H         -2.45761       -0.94773       -2.11022
S          2.21216       -0.43015       -0.14291
O          3.36350       -1.23045       -0.50578
O          1.21149       -0.11044       -1.16633
O          2.71598        0.91482        0.50014
H          1.99969        1.66830        0.38967
C          1.36892       -1.22177        1.21269
H          0.97971       -2.17266        0.84754
H          2.09245       -1.38186        2.01201
H          0.54999       -0.57878        1.53802
N          0.87445        2.72207        0.17143
H          0.90396        3.54878        0.75909
H         -0.01465        2.24548        0.32581
H          0.90358        3.01959       -0.79888
