40
2msa1dma1eda_254.log	Energy: -1038020.1260876
S         -1.78805        1.87571        0.13129
O         -2.84857        1.12740       -0.55484
O         -0.99236        2.79491       -0.69737
O         -0.85198        0.93737        0.88735
C         -2.56946        2.84535        1.40924
H         -3.13068        2.17144        2.05667
H         -1.79511        3.36913        1.96967
H         -3.23942        3.55438        0.92193
S         -1.23268       -2.36381       -0.19186
O         -1.07899       -3.76180        0.15773
O         -0.21705       -1.75954       -1.06376
O         -1.30431       -1.55199        1.15972
H         -1.18561       -0.54503        1.02675
C         -2.82548       -2.08827       -0.92642
H         -2.96112       -1.01019       -1.04858
H         -2.83191       -2.60749       -1.88549
H         -3.57583       -2.50561       -0.25487
N          2.64527       -1.51081        0.20715
C          2.32833       -1.34762        1.62494
C          4.06381       -1.74295       -0.03230
H          2.08885       -2.27139       -0.17585
H          2.80204       -0.42869        1.98388
H          1.24704       -1.25340        1.74950
H          2.67711       -2.19186        2.23716
H          4.62183       -0.85735        0.28701
H          4.45380       -2.61473        0.51448
H          4.23909       -1.89597       -1.10065
H          2.62890        1.53356       -2.18884
H          1.08229        2.39739       -1.95209
H          2.80915        3.59088       -0.73673
H          1.66422        2.86112        0.38852
H          4.37216        1.87918       -0.16070
H          3.70673        2.27772        1.27543
H          0.72232        0.06127       -1.62860
H          1.94397       -0.12260       -0.51333
C          1.86490        1.81872       -1.45872
C          2.46367        2.63281       -0.32300
N          1.25307        0.58246       -0.92938
N          3.50571        1.87421        0.36789
H          0.55502        0.79772       -0.18882
