42
2msa2eda_517.log	Energy: -1072745.4815978
S         -1.01923        2.23963       -0.26516
O         -0.33729        1.87804        0.98854
O         -2.35141        2.79729       -0.17645
O         -1.07762        0.99552       -1.21837
H         -0.31826        0.31222       -1.06974
C          0.05148        3.36836       -1.12742
H         -0.35059        3.52323       -2.12846
H          0.05384        4.30234       -0.56395
H          1.05290        2.93262       -1.14945
S          1.10737       -1.97092       -0.63616
O          2.26397       -2.55927       -1.30431
O          0.89152       -0.53219       -1.05484
O          1.17140       -2.04379        0.86119
H          1.58704       -0.62328        1.47600
C         -0.36008       -2.84667       -1.12582
H         -0.40335       -2.83044       -2.21524
H         -0.26731       -3.87105       -0.76353
H         -1.22986       -2.34627       -0.69454
H         -4.19786        0.06901        0.93752
H         -4.98884       -1.49907        0.72522
H         -3.37423       -1.60732        2.55551
H         -2.88871       -2.67024        1.22216
H         -1.68562       -0.04365        1.76619
H         -0.93783       -1.51706        1.71540
H         -4.34202       -0.72823       -1.40286
H         -2.80336       -0.46970       -0.93053
C         -4.03585       -0.97153        0.60649
C         -3.00142       -1.62144        1.51853
N         -3.61181       -1.06916       -0.78724
N         -1.70792       -0.96843        1.34888
H          3.39742        1.70076        2.06891
H          3.78139       -0.00892        2.41139
H          4.83080        0.75729        0.31703
H          3.69380       -0.55313        0.01336
H          3.67300        1.80425       -1.28021
H          2.37057        0.81203       -1.13864
H          1.45499        0.45806        2.76566
H          1.23471        1.00283        1.23561
C          3.25827        0.67031        1.73355
C          3.76664        0.50274        0.30495
N          1.80666        0.36170        1.81497
N          3.03997        1.37574       -0.61652
