43
2msa1eda1tma_78.log	Energy: -1062684.2408183
S          0.13300        2.11228       -0.54058
O          1.55546        1.72672       -0.65635
O         -0.42267        1.61490        0.77800
O         -0.71389        1.71995       -1.67626
C          0.07456        3.88990       -0.41725
H          0.66548        4.19156        0.44770
H          0.49053        4.30320       -1.33639
H         -0.96730        4.18751       -0.29729
S         -2.91166       -0.83009        0.48270
O         -4.11966       -1.41964        1.01678
O         -1.65561       -1.58811        0.59828
O         -2.73268        0.58096        1.16347
H         -1.83046        1.00542        0.96229
C         -3.13565       -0.43484       -1.23588
H         -3.20804       -1.37928       -1.77689
H         -4.06297        0.13092       -1.32627
H         -2.28068        0.15971       -1.57022
H          1.59691       -0.80314        3.22213
H          2.06075       -2.22755        2.25516
H          3.98929       -0.73654        2.68723
H          3.65696       -0.89480        0.96164
H          4.01106        1.44506        1.99607
H          2.71653        1.30462        0.99605
H          0.02880       -1.27897        1.35665
H          0.67718        0.21176        1.24957
C          1.95106       -1.13954        2.24528
C          3.27491       -0.46631        1.90373
N          0.92709       -0.79282        1.23664
N          3.12118        0.97856        1.87402
H          1.26014       -1.03658        0.24601
N          1.67850       -1.67771       -1.29401
C          1.96846       -3.08980       -1.06876
H          2.85471       -3.18871       -0.43333
H          1.11969       -3.56391       -0.56612
H          2.15722       -3.62860       -2.01193
C          0.46169       -1.51430       -2.09290
H         -0.38147       -1.96745       -1.56420
H          0.25386       -0.45010       -2.22760
H          0.56524       -1.98981       -3.08240
C          2.80650       -0.99414       -1.92346
H          2.57937        0.07050       -2.00345
H          3.70266       -1.11446       -1.30668
H          3.01890       -1.40583       -2.92409
