37
2msa1ma1eda_76.log	Energy: -1013367.8157765
S          1.23672        1.70825       -0.43153
O          0.06237        2.07952       -1.23468
O          1.98729        0.52820       -0.95620
O          0.89411        1.51135        1.01410
H          1.58374       -0.97450        1.57526
C          2.38265        3.07389       -0.49568
H          2.65496        3.23433       -1.53905
H          1.88431        3.95501       -0.09090
H          3.26042        2.82208        0.09970
S         -2.43441       -1.31241       -0.22367
O         -3.20688       -2.54620       -0.29656
O         -1.44456       -1.26963        0.91194
O         -3.24176       -0.05389       -0.19725
H         -2.40894        1.01592        0.65264
C         -1.44700       -1.20106       -1.71366
H         -0.78857       -2.07068       -1.76256
H         -2.13049       -1.20929       -2.56339
H         -0.87684       -0.26906       -1.69895
N         -1.88500        1.70151        1.27555
H         -2.15772        1.48827        2.23244
C         -2.18950        3.09781        0.89785
H         -1.68017        3.78251        1.57687
H         -1.82280        3.24626       -0.11743
H         -3.26693        3.25753        0.93902
H         -0.86244        1.51913        1.18759
H          3.08217       -2.29677       -1.13296
H          3.74319       -3.50633       -0.02906
H          1.17740       -3.35765       -0.10053
H          1.89940       -3.26590        1.51836
H          1.37537       -0.80031       -0.02337
H          0.12648       -1.48651        0.87967
H          4.92961       -1.71606        0.68275
H          3.79138       -0.61934        0.24874
C          3.20377       -2.55626       -0.07222
C          1.82408       -2.76527        0.55104
N          3.93471       -1.53259        0.67229
N          1.17901       -1.45058        0.76837
