26
2msa2a_78.log	Energy: -904631.9626020
S          2.71881        0.01341        0.09037
O          4.13290       -0.20963        0.29669
O          1.93028        0.72026        1.09324
O          2.05916       -1.42189       -0.15448
H          1.08563       -1.38395        0.02331
C          2.47546        0.81991       -1.47806
H          2.93785        1.80498       -1.40202
H          2.96654        0.22349       -2.24667
H          1.40220        0.90878       -1.65601
S         -1.31621       -0.00581        0.07261
O         -0.88256        0.82625       -1.03978
O         -0.60465       -1.29111        0.25183
O         -2.84559       -0.34393       -0.07222
H         -2.99574       -1.37645       -0.17043
C         -1.25670        0.92770        1.57278
H         -0.20512        1.17543        1.73091
H         -1.87470        1.81664        1.41093
H         -1.63985        0.29853        2.37601
N         -3.07020       -2.92062       -0.28974
H         -2.11320       -3.18827       -0.06781
H         -3.28172       -3.25193       -1.22589
H         -3.69435       -3.38835        0.35987
N         -3.08018        2.97901       -0.22670
H         -3.86029        2.36921       -0.44821
H         -2.35463        2.79803       -0.91464
H         -3.39053        3.93819       -0.33249
