40
2msa1dma1eda_365.log	Energy: -1038017.0781549
S          3.18971        0.08987        0.15873
O          2.90360       -1.15692       -0.61039
O          2.26499        0.26745        1.30614
O          3.24390        1.30084       -0.70034
H          1.62220        2.06612       -0.52605
C          4.82740       -0.13402        0.82184
H          4.81465       -1.01318        1.46619
H          5.51448       -0.27625       -0.01229
H          5.08690        0.76006        1.38887
S         -0.56167       -1.66824       -0.36911
O         -1.70929       -2.52109       -0.62575
O         -0.50316       -0.39290       -1.10324
O          0.73378       -2.49712       -0.65729
H          1.58427       -1.92326       -0.64751
C         -0.47534       -1.31763        1.36998
H         -1.32942       -0.68040        1.60590
H         -0.53339       -2.27027        1.89710
H          0.46984       -0.80668        1.57336
N         -3.73219       -0.31652        0.35338
C         -4.21313        0.14280       -0.94424
C         -4.78156       -0.34972        1.36239
H         -3.34066       -1.24711        0.22942
H         -4.47340        1.20676       -0.88431
H         -3.41861        0.01866       -1.68432
H         -5.10389       -0.40364       -1.29343
H         -5.12545        0.67114        1.56550
H         -5.65878       -0.94521        1.06085
H         -4.38545       -0.76351        2.29390
H         -0.00679        3.97141       -0.07555
H         -0.07988        3.32142       -1.72713
H         -2.37558        3.51568       -0.68506
H         -1.95120        1.87581       -1.17603
H         -2.28933        2.80383        1.52893
H         -2.50029        1.29498        0.86325
H          0.57238        1.82856        0.73968
H          0.28419        1.08585       -0.67603
C         -0.26933        3.09615       -0.67538
C         -1.72059        2.66520       -0.45459
N          0.61750        1.98383       -0.27088
N         -1.89969        2.12474        0.88718
