35
2msa1ma1dma_27.log	Energy: -978629.7977904
S         -2.49384       -0.60735       -0.08809
O         -3.49172       -1.57739       -0.48417
O         -1.57353       -0.34883       -1.34371
O         -1.64982       -0.92045        1.07443
H          0.05814       -0.95868        1.51084
C         -3.25317        0.96965        0.20832
H         -3.83049        1.23129       -0.67855
H         -3.90598        0.85196        1.07408
H         -2.45953        1.69608        0.40239
S          0.81204        2.04333       -0.00809
O          1.75650        1.64723        1.06722
O         -0.46699        2.59141        0.45776
O          0.61582        0.90347       -0.98101
H         -0.74154        0.20590       -1.14167
C          1.63773        3.31745       -0.94241
H          2.57005        2.91182       -1.33505
H          0.97584        3.62575       -1.75177
H          1.83301        4.14931       -0.26538
N          1.08272       -0.97322        1.64833
H          1.49257       -1.38894        0.75089
C          1.46813       -1.71395        2.86099
H          2.55382       -1.70306        2.96267
H          1.01809       -1.24777        3.73770
H          1.11950       -2.74404        2.78075
H          1.39369        0.01946        1.65139
N          1.97660       -1.74432       -0.85322
C          1.11583       -2.74979       -1.47331
C          3.39727       -1.98185       -1.08233
H          1.71863       -0.81975       -1.20168
H          1.28358       -3.72081       -0.99562
H          0.06894       -2.47022       -1.33496
H          1.30506       -2.86152       -2.55091
H          3.69600       -2.91806       -0.59914
H          3.64806       -2.05701       -2.15105
H          3.97932       -1.16706       -0.64360
