32
2msa2ma_29.log	Energy: -953969.3976586
S         -1.95402       -1.05331        0.15352
O         -0.58850       -1.28397       -0.43970
O         -2.85143       -0.36925       -0.78908
O         -1.84118       -0.39888        1.48303
C         -2.63652       -2.67317        0.44517
H         -2.71556       -3.18214       -0.51545
H         -1.97215       -3.21359        1.11955
H         -3.62113       -2.54374        0.89487
S          2.59007       -0.37127        0.04832
O          3.90010       -0.51766        0.64367
O          2.01764        0.98032       -0.05243
O          1.59365       -1.29981        0.83442
H          0.66301       -1.29682        0.39911
C          2.58356       -1.06039       -1.59330
H          3.20588       -0.41948       -2.21849
H          2.99890       -2.06641       -1.53598
H          1.55300       -1.08124       -1.95225
N         -0.38235        1.91851        1.04954
H         -0.89878        1.07931        1.38763
H          0.56354        1.60599        0.77357
C         -0.34675        3.00018        2.04914
H          0.18032        3.86024        1.63533
H         -1.36795        3.28544        2.30334
H          0.16771        2.65599        2.94644
H         -0.87949        2.20521        0.14822
N         -1.63801        2.26367       -1.40525
H         -2.36452        1.55249       -1.29562
C         -0.63648        1.76553       -2.35902
H         -1.04503        1.59003       -3.36106
H          0.19102        2.47643       -2.43111
H         -0.24270        0.82013       -1.97817
H         -2.07545        3.11143       -1.75079
