32
2msa2ma_221.log	Energy: -953954.8473769
S          1.82087       -1.36319        0.01540
O          3.04009       -2.04658       -0.38665
O          0.75364       -1.40182       -1.07480
O          1.99312        0.05529        0.45012
H          1.25668        1.06865       -0.64469
C          1.11469       -2.22412        1.40620
H          0.92215       -3.25379        1.10294
H          1.85224       -2.19683        2.20876
H          0.19577       -1.71772        1.70603
S         -2.18673       -0.29496        0.01541
O         -1.93855        0.92452       -0.77942
O         -1.67508       -0.28653        1.37843
O         -1.68247       -1.54624       -0.76637
H         -0.62139       -1.53069       -0.87003
C         -3.93364       -0.59481        0.02224
H         -4.39504        0.24336        0.54512
H         -4.27976       -0.65098       -1.00919
H         -4.11394       -1.52972        0.55194
N          0.71866        1.39123       -1.49521
H          0.90128        0.65902       -2.18465
C          1.08509        2.74232       -1.96182
H          0.54808        2.97130       -2.88229
H          0.81556        3.46279       -1.19033
H          2.15996        2.78499       -2.13576
H         -0.28741        1.31142       -1.25080
N          0.00531        2.47032        1.65880
H          0.07331        1.46078        1.72607
C          1.30716        3.11434        1.60107
H          1.98493        2.75809        0.80729
H          1.17422        4.19471        1.48224
H          1.82839        2.95533        2.54862
H         -0.59479        2.69325        0.87404
