40
2msa1dma1eda_292.log	Energy: -1038017.7890730
S         -0.40093       -1.56698       -0.71924
O         -1.66971       -2.28240       -0.57109
O          0.08492       -0.99682        0.59437
O         -0.41859       -0.49161       -1.75135
H         -0.08631        0.94573       -1.00110
C          0.83927       -2.73592       -1.23514
H          0.90378       -3.51555       -0.47550
H          0.51890       -3.15576       -2.18894
H          1.78776       -2.20580       -1.34167
S          3.23924        0.27901        0.37212
O          2.71709        1.65182        0.30572
O          3.38428       -0.42900       -0.89192
O          2.40378       -0.56752        1.39151
H          1.44470       -0.77852        1.03264
C          4.79427        0.32931        1.22503
H          5.47013        0.92233        0.60828
H          4.64098        0.79962        2.19569
H          5.16112       -0.69099        1.33212
N         -3.64377       -0.38087        0.74593
C         -5.08348       -0.51610        0.58723
C         -3.18880       -0.69983        2.09413
H         -3.16538       -1.00995        0.10238
H         -5.59618        0.22758        1.20881
H         -5.35755       -0.33182       -0.45523
H         -5.46087       -1.51153        0.87487
H         -3.55203        0.05885        2.79821
H         -3.54009       -1.68432        2.44367
H         -2.09626       -0.69848        2.11123
H         -0.49976        3.87533       -0.70871
H         -0.45897        2.93404       -2.22296
H         -2.84040        3.40684       -1.40045
H         -2.47016        1.68538       -1.55604
H         -2.97001        3.09933        0.88968
H         -3.00910        1.45152        0.56466
H          0.99798        2.03205       -0.30100
H         -0.48582        1.71151        0.42653
C         -0.75219        2.91793       -1.17152
C         -2.24024        2.59063       -0.98266
N         -0.00056        1.85254       -0.47448
N         -2.49519        2.33523        0.42806
