37
2msa1ma1eda_136.log	Energy: -1013360.2412038
S         -1.42923       -2.15589        0.13775
O         -1.44567       -2.23274        1.58871
O          0.00852       -2.33833       -0.44175
O         -2.06324       -0.97169       -0.46959
C         -2.21490       -3.59209       -0.55284
H         -1.72583       -4.47570       -0.14377
H         -3.26249       -3.55519       -0.25221
H         -2.11854       -3.55214       -1.63739
S          2.59949        0.12688       -0.22730
O          3.05573        1.21940        0.63881
O          1.98875        0.55317       -1.51245
O          1.68153       -0.81055        0.52092
H          0.73138       -1.67041       -0.04432
C          4.02814       -0.85042       -0.65838
H          4.72602       -0.20413       -1.19137
H          4.47405       -1.22297        0.26392
H          3.70170       -1.67369       -1.29423
N          0.30423        2.13447        1.64264
H          1.32052        2.04841        1.61908
C         -0.28774        1.12985        2.53359
H         -0.04958        1.28996        3.59206
H         -1.37495        1.13783        2.41257
H          0.07920        0.14345        2.24318
H          0.06388        3.07184        1.94570
H         -0.78129        3.28749       -1.72714
H         -1.45632        1.94869       -2.66942
H         -3.31858        3.19156       -1.75326
H         -3.22690        1.62894       -0.93303
H         -2.40904        4.19321        0.21355
H         -3.44636        3.08241        0.81883
H          0.33216        1.13855       -1.27905
H         -0.31239        1.79310        0.13031
C         -1.35039        2.35530       -1.66010
C         -2.72394        2.59513       -1.04521
N         -0.57420        1.40332       -0.84522
N         -2.59769        3.19827        0.27799
H         -1.10906        0.52988       -0.70860
