42
2msa2eda_127.log	Energy: -1072765.5805566
S          2.51463       -0.22320       -0.53294
O          1.58767       -0.14390        0.65266
O          2.72663        1.09647       -1.14663
O          2.06323       -1.28549       -1.46988
C          4.08444       -0.76802        0.11518
H          4.42761       -0.03410        0.84483
H          3.94917       -1.74396        0.58246
H          4.78429       -0.83692       -0.71795
S         -3.09918        0.25202        0.03124
O         -2.77055        1.38587        0.93056
O         -3.12827       -1.07085        0.67394
O         -2.18177        0.24452       -1.17062
C         -4.73195        0.57305       -0.60906
H         -5.42390        0.58276        0.23348
H         -4.72346        1.54032       -1.11127
H         -4.98806       -0.22380       -1.30727
H          1.06161        2.99630       -1.26003
H         -0.45291        3.84376       -0.84001
H          1.44426        4.84373        0.35696
H          0.34433        4.10880        1.51081
H          1.84866        2.34644        1.85462
H          2.76308        2.74668        0.56532
H         -0.72477        1.42812       -0.83241
H          0.48000        1.25507        0.30176
C          0.35301        3.21206       -0.45759
C          1.06774        3.88074        0.71943
N         -0.24140        1.91342       -0.05737
N          2.16910        3.12977        1.29603
H         -1.00384        1.99487        0.63836
H         -1.61767       -3.33078        0.41236
H         -0.91623       -3.79795       -1.16596
H          0.25857       -4.89426        0.77444
H          1.33834       -3.89513       -0.20557
H          1.19453       -3.64741        2.42889
H          1.35282       -2.27687        1.52823
H         -1.26812       -1.34850       -0.93909
H         -0.29442       -1.37262        0.37866
C         -0.72838       -3.28760       -0.21874
C          0.49187       -3.86288        0.49656
N         -0.47637       -1.85694       -0.50712
N          0.76796       -3.09007        1.70153
H          0.38792       -1.71589       -1.07099
