35
2msa1ma1dma_299.log	Energy: -978613.4744368
S         -1.92124       -0.33110        0.60243
O         -1.87765        0.80790       -0.31987
O         -1.47593       -1.62516        0.09897
O         -3.38826       -0.45574        1.16483
H         -4.06481        0.01574        0.49612
C         -1.00279        0.06260        2.06639
H          0.04763        0.17609        1.77342
H         -1.39572        0.99380        2.47437
H         -1.12915       -0.75549        2.77610
S          2.39659        1.30041       -0.08131
O          3.67458        1.99588        0.07053
O          2.01724        0.42861        1.06287
O          2.30733        0.50398       -1.36839
H          2.41885       -0.92187       -1.09313
C          1.11890        2.53524       -0.24373
H          1.11717        3.13111        0.67026
H          1.36709        3.16049       -1.10194
H          0.15922        2.03616       -0.39080
N         -4.87712        0.69414       -0.58642
H         -5.81555        0.98163       -0.32681
C         -4.89165       -0.17357       -1.77508
H         -5.36069        0.29992       -2.64357
H         -3.86015       -0.42924       -2.02542
H         -5.42570       -1.09584       -1.53801
H         -4.33140        1.53214       -0.77428
N          2.63570       -1.97717       -0.85124
C          1.58047       -2.51672        0.03778
C          3.98751       -1.99955       -0.24780
H          2.63923       -2.48549       -1.73369
H          1.59298       -1.92108        0.95020
H          0.60702       -2.39645       -0.43674
H          1.78180       -3.56850        0.25384
H          3.95753       -1.37868        0.64904
H          4.26827       -3.02434        0.00451
H          4.69752       -1.56957       -0.95462
