37
2msa1ma1eda_566.log	Energy: -1013344.6246643
S         -2.86265       -1.01793       -0.17692
O         -3.45048        0.18343       -0.75768
O         -2.65226       -1.04503        1.26480
O         -1.52052       -1.39204       -0.92720
H         -0.76265       -0.77095       -0.64332
C         -3.83959       -2.42450       -0.65313
H         -4.82261       -2.28680       -0.20166
H         -3.91434       -2.44542       -1.73995
H         -3.36045       -3.32424       -0.26895
S          0.99553        0.32704        1.06739
O          1.43741       -0.98539        1.56278
O          0.34472        0.23294       -0.29142
O          2.11279        1.32727        0.97164
H          2.78532        1.07194       -0.42036
C         -0.20385        0.99769        2.18564
H         -1.00749        0.26375        2.27356
H          0.29392        1.16096        3.14185
H         -0.58446        1.92623        1.74971
N         -1.57296        2.74051       -0.28967
H         -0.79236        2.23917       -0.70378
C         -1.86260        3.96501       -1.02590
H         -2.09169        3.81778       -2.09342
H         -2.71903        4.46868       -0.56804
H         -1.01008        4.64848       -0.95451
H         -2.36191        2.10026       -0.33850
H          4.92875       -0.29842       -2.01921
H          5.15404        0.69378       -0.55294
H          5.10527       -1.84105       -0.11655
H          3.91894       -0.91460        0.81155
H          3.33927       -2.86535       -1.17655
H          2.33480       -2.10864       -0.09294
H          3.23367        1.36608       -2.05423
H          2.53067       -0.09235       -1.59498
C          4.49125       -0.01003       -1.05977
C          4.19123       -1.24344       -0.19546
N          3.19214        0.65774       -1.32654
N          3.07289       -1.97438       -0.78034
