34
2msa1a1eda_183.log	Energy: -988701.4294867
S          2.90874       -0.52903       -0.07725
O          2.25212       -1.76990        0.36319
O          3.07653        0.50930        0.93040
O          2.19262        0.03358       -1.34965
H          1.20036        0.29121       -1.12493
C          4.48369       -0.95413       -0.77471
H          5.08951       -1.35765        0.03701
H          4.32806       -1.70027       -1.55311
H          4.93322       -0.04767       -1.17896
S         -0.70520        1.63770        0.13163
O         -1.86422        2.30012       -0.47030
O         -0.15565        0.53425       -0.74304
O         -0.94452        1.10753        1.50309
H         -0.55193       -0.53380        1.60413
C          0.59835        2.84392        0.27937
H          0.79757        3.25088       -0.71263
H          0.24328        3.62760        0.94905
H          1.48321        2.35298        0.68904
N         -0.38010       -1.55830        1.46103
H         -0.47780       -2.06090        2.33787
H          0.57671       -1.68105        1.09168
H         -1.09757       -1.89451        0.73083
H         -4.39216       -2.52066       -0.56971
H         -3.73637       -2.49344        1.07650
H         -4.91405       -0.37984        0.57799
H         -3.19603       -0.07250        0.82181
H         -4.62994        0.12785       -1.67694
H         -3.29798        0.95149       -1.13687
H         -2.17558       -3.17687       -0.83710
H         -2.14843       -1.57356       -1.18601
C         -3.64301       -2.04602        0.07932
C         -3.91772       -0.54194        0.14389
N         -2.27818       -2.25266       -0.42980
N         -3.75226        0.04266       -1.18072
