40
2msa1dma1eda_264.log	Energy: -1038020.5344394
S          1.77823       -1.84309        0.33975
O          1.46375       -2.96102        1.21078
O          2.01266       -0.54010        0.97352
O          0.70149       -1.68315       -0.80079
H         -0.25550       -1.51293       -0.43923
C          3.18776       -2.22576       -0.67201
H          4.02921       -2.36794        0.00710
H          2.97932       -3.14147       -1.22435
H          3.36787       -1.38439       -1.34313
S         -2.66811       -0.39576       -0.49878
O         -1.57204       -1.20522        0.14496
O         -2.30191        0.08943       -1.83662
O         -3.12371        0.66667        0.43828
H         -1.71307        1.32519        1.18649
C         -4.03661       -1.52050       -0.68432
H         -3.72558       -2.31717       -1.36021
H         -4.28812       -1.92004        0.29783
H         -4.87417       -0.96380       -1.10498
N         -0.73547        1.55979        1.47225
C         -0.33271        0.65552        2.56966
C         -0.63024        2.99364        1.79192
H         -0.17608        1.39302        0.57569
H         -0.91311        0.90039        3.46198
H         -0.53989       -0.36713        2.25760
H          0.73433        0.76587        2.75911
H         -1.29615        3.24004        2.62073
H          0.40084        3.22621        2.06544
H         -0.91322        3.57021        0.91013
H          2.05937        3.13354        0.16106
H          2.90322        3.61717       -1.31527
H          0.46931        3.41274       -1.66009
H          1.40085        2.32658       -2.70726
H         -0.52529        1.24830       -1.62398
H          0.86452        0.53818       -1.21900
H          4.17495        1.87508       -0.56928
H          2.90529        0.95327       -0.10545
C          2.35893        2.79145       -0.84509
C          1.10529        2.51981       -1.66713
N          3.22541        1.61588       -0.80912
N          0.34043        1.40333       -1.10394
