42
2msa2eda_303.log	Energy: -1072753.6713054
S          0.54935        2.42896        0.08322
O          0.60304        3.77385        0.63870
O         -0.26241        1.45951        0.92191
O          1.87384        1.80204       -0.19234
H          2.11557        0.36101        0.77330
C         -0.29640        2.51266       -1.48758
H         -1.26361        2.99050       -1.32618
H          0.31668        3.11694       -2.15692
H         -0.43510        1.50102       -1.87197
S         -2.62682       -0.54575       -0.25397
O         -2.32773       -1.62856        0.68226
O         -1.83283       -0.51520       -1.48625
O         -2.58841        0.84048        0.45837
H         -1.59027        1.14992        0.67042
C         -4.34952       -0.62428       -0.67838
H         -4.51039       -1.58213       -1.17374
H         -4.92971       -0.56217        0.24189
H         -4.58041        0.20353       -1.34795
H          1.46486       -0.85134       -3.17044
H          2.89267       -1.85156       -3.41975
H          1.10582       -3.19866       -2.52178
H          2.44514       -3.10443       -1.36288
H         -0.01269       -1.48260       -1.16083
H          0.37306       -2.75021       -0.21245
H          3.86043       -0.13322       -2.37120
H          2.56008        0.29954       -1.50109
C          2.26555       -1.39598       -2.64636
C          1.64110       -2.52707       -1.83413
N          3.09356       -0.50689       -1.82427
N          0.77452       -2.00597       -0.77640
H          2.78987       -1.81389        2.69082
H          2.78990       -0.06025        2.99628
H          0.79500       -0.95762        4.02601
H          0.29064       -0.07083        2.58755
H          0.07670       -2.89444        3.04852
H         -0.73409       -1.95256        1.97050
H          3.25236       -0.80487        0.60535
H          1.65392       -1.21044        0.43635
C          2.27098       -0.87453        2.48238
C          0.81397       -0.96928        2.92877
N          2.33914       -0.62385        1.02516
N          0.18064       -2.15741        2.36303
