30
2msa1eda_49.log	Energy: -953205.7002237
S         -2.67185       -0.75920       -0.01861
O         -1.51642       -1.66919        0.04795
O         -3.97424       -1.35598       -0.21242
O         -2.45546        0.28833       -1.17327
C         -2.65619        0.22851        1.46146
H         -1.67046        0.69030        1.56607
H         -3.44464        0.97607        1.37447
H         -2.85850       -0.44961        2.29162
S          0.74536        1.75323       -0.08453
O          1.71781        0.99573       -0.92805
O          0.58410        1.13246        1.24971
O         -0.55642        1.97404       -0.77375
H         -1.65682        0.89684       -1.02722
C          1.43906        3.37710        0.13956
H          2.40151        3.26846        0.63959
H          1.56101        3.83256       -0.84310
H          0.74977        3.95820        0.75214
H          2.09166       -3.31426        0.57597
H          1.73884       -3.04474       -1.14770
H          4.22311       -2.85756       -0.49651
H          3.56874       -1.47870       -1.38193
H          4.84164       -1.26969        0.98247
H          3.70853       -0.18826        0.49579
H          0.20048       -1.68752        0.11750
H          1.44559       -1.09707        1.05635
C          2.11722       -2.58236       -0.23381
C          3.52568       -2.01861       -0.42678
N          1.21413       -1.46801        0.12985
N          3.87378       -1.16731        0.70834
H          1.35845       -0.64318       -0.49654
