35
2msa1a1tma_80.log	Energy: -978615.6921118
S         -3.59527       -0.28764       -0.19553
O         -3.10360        0.31561       -1.44455
O         -3.90153        0.67337        0.86586
O         -2.61897       -1.39121        0.31028
H         -1.72461       -0.95339        0.64231
C         -5.02088       -1.27385       -0.56244
H         -5.78366       -0.59657       -0.94702
H         -4.73968       -2.01127       -1.31358
H         -5.35269       -1.75258        0.35829
S          0.69546        0.05656        0.48240
O          0.97974       -0.93763       -0.54918
O         -0.64825       -0.13623        1.14953
O          0.78978        1.48142        0.01979
H         -0.62009        2.09633       -0.11829
C          1.90383       -0.11127        1.77302
H          1.81145       -1.11815        2.18210
H          2.88980        0.03591        1.31443
H          1.69772        0.63726        2.53810
N         -1.65267        2.40104       -0.19670
H         -1.74463        3.39452       -0.38682
H         -2.13860        2.15361        0.67033
H         -2.10930        1.83667       -0.93317
N          4.56974       -0.15582       -0.20917
C          4.11208        0.63160       -1.34374
H          3.05927        0.41569       -1.54031
H          4.20688        1.69754       -1.11655
H          4.69384        0.41737       -2.26138
C          5.95068        0.14233        0.12018
H          6.06133        1.21018        0.33226
H          6.25036       -0.41679        1.01227
H          6.64804       -0.11924       -0.69971
C          4.37589       -1.57726       -0.44970
H          4.67316       -2.14508        0.43833
H          3.31878       -1.77116       -0.65073
H          4.97308       -1.94202       -1.30746
