30
2msa1eda_84.log	Energy: -953201.2053922
S         -2.59427       -0.28436       -0.10661
O         -2.02466        0.27061       -1.32702
O         -3.77588        0.32653        0.46998
O         -1.48838       -0.28295        1.04278
H         -0.66884       -0.81281        0.75647
C         -2.86994       -2.02504       -0.36274
H         -1.92090       -2.47804       -0.65354
H         -3.24602       -2.45309        0.56615
H         -3.60800       -2.11825       -1.16005
S          1.85633       -1.24230        0.07979
O          0.46234       -1.74232        0.26012
O          2.40579       -0.57338        1.27208
O          1.99291       -0.38224       -1.13956
H          2.21923        1.10918       -0.58932
C          2.82063       -2.70473       -0.24209
H          2.73408       -3.36239        0.62297
H          2.42271       -3.18510       -1.13584
H          3.85656       -2.40184       -0.39442
H          1.67365        4.04263       -0.28109
H          1.55792        3.07457       -1.77469
H         -0.71405        3.47533       -0.67643
H         -0.31762        1.77166       -0.84356
H         -0.43398        3.26946        1.62789
H         -0.68590        1.66674        1.34683
H          3.25867        2.31818       -0.01376
H          1.90599        1.86482        0.86836
C          1.40098        3.06786       -0.69469
C         -0.03623        2.69117       -0.32180
N          2.28238        2.04341       -0.08103
N         -0.09610        2.46231        1.11874
