34
2msa1a1eda_67.log	Energy: -988708.6169550
S          2.98578        0.24403       -0.12389
O          4.15690        1.10918       -0.08010
O          1.93517        0.58417        0.91118
O          3.26974       -1.22160       -0.06810
H          2.12754       -2.01092        0.81871
C          2.17551        0.50572       -1.69904
H          1.96909        1.57263       -1.80662
H          2.86458        0.18585       -2.48124
H          1.25487       -0.08193       -1.73160
S         -1.87965       -1.42788       -0.20008
O         -1.07305       -2.54460        0.36072
O         -1.09734       -0.59229       -1.16191
O         -2.52623       -0.59209        0.83692
H         -1.01910        1.37199        1.23767
C         -3.17254       -2.20790       -1.14564
H         -2.70709       -2.81360       -1.92315
H         -3.75649       -2.83072       -0.46790
H         -3.79347       -1.42658       -1.58424
N          1.34237       -2.10613        1.52153
H          1.30617       -1.16425        1.92449
H          1.55062       -2.80114        2.23171
H          0.42369       -2.30965        1.05248
H         -2.70345        2.22518       -1.10996
H         -2.78776        3.88077       -0.50142
H         -0.42147        3.10053       -1.06217
H         -0.62316        3.66661        0.61656
H         -0.69868        0.82826       -0.28530
H          0.54165        1.48516        0.61111
H         -3.86914        2.93549        1.24071
H         -3.26823        1.42176        0.96127
C         -2.44414        2.87120       -0.26010
C         -0.92165        2.90847       -0.11026
N         -3.04138        2.41334        0.98958
N         -0.47710        1.59265        0.39501
