43
2msa1eda1tma_108.log	Energy: -1062679.4974240
S          0.59339        2.40458       -0.49933
O          1.74236        1.62578       -1.06931
O          0.65553        2.54283        0.96356
O         -0.71237        1.86046       -0.96930
C          0.75052        4.02330       -1.22711
H          1.70637        4.44222       -0.91238
H          0.71295        3.91459       -2.31093
H         -0.07652        4.63682       -0.86927
S          2.53871       -1.43253        0.31481
O          2.34093       -2.06778       -0.97862
O          1.37493       -1.40976        1.21730
O          3.14795       -0.00286        0.18049
H          2.53133        0.67961       -0.32037
C          3.87012       -2.23355        1.17500
H          4.75652       -2.19266        0.54250
H          4.03435       -1.71745        2.12024
H          3.56256       -3.26607        1.34251
H         -1.67481       -0.38624        2.90954
H         -0.89936        1.16331        2.49881
H         -3.26633        1.58103        2.89130
H         -2.90492        1.81368        1.17788
H         -4.25350       -0.52962        2.31529
H         -4.80066        0.49289        1.16598
H         -0.20872       -0.60156        1.02270
H         -1.77154       -0.83545        0.42230
C         -1.62658        0.41788        2.16908
C         -2.99085        1.05701        1.96473
N         -1.12936       -0.14846        0.90019
N         -3.96559        0.05428        1.53653
H         -1.00076        0.61486        0.20123
N         -2.25907       -1.75067       -1.06386
C         -0.98453       -1.97024       -1.74595
H         -0.47554       -1.01334       -1.89371
H         -0.33514       -2.60620       -1.13933
H         -1.12162       -2.44462       -2.73224
C         -2.95753       -3.00082       -0.80985
H         -2.32221       -3.66351       -0.21487
H         -3.87335       -2.79787       -0.24715
H         -3.22603       -3.52495       -1.74409
C         -3.09367       -0.81105       -1.80379
H         -4.01399       -0.62751       -1.24320
H         -2.56103        0.13778       -1.91976
H         -3.35298       -1.19309       -2.80643
