42
2msa2eda_615.log	Energy: -1072729.1094302
S          3.67531       -0.11142       -0.21538
O          4.87973       -0.86975       -0.45645
O          2.86286       -0.42374        0.97677
O          2.73098       -0.25094       -1.49066
H          1.78896       -0.40994       -1.22804
C          4.03578        1.62144       -0.17977
H          4.71937        1.78175        0.65522
H          4.51872        1.87325       -1.12426
H          3.08802        2.15583       -0.03675
S         -0.29111       -1.62068        0.35564
O         -1.06186       -2.74891       -0.12084
O          0.20229       -0.64628       -0.63681
O          0.94539       -2.19013        1.15611
H          1.72182       -1.55740        1.13062
C         -1.22238       -0.73150        1.57428
H         -2.15348       -0.40225        1.10770
H         -1.42701       -1.41888        2.39523
H         -0.65116        0.13860        1.90021
H         -5.63198        0.30047       -1.15813
H         -4.29350        1.44234       -1.35832
H         -3.81267       -0.74341       -2.42242
H         -2.65082       -0.36157       -1.15884
H         -4.79642       -2.32945       -0.95655
H         -3.20093       -2.48182       -0.58794
H         -5.18003        1.28559        0.95271
H         -4.58440       -0.23995        1.01181
C         -4.59296        0.51442       -0.85829
C         -3.69833       -0.62773       -1.33494
N         -4.45197        0.67822        0.59061
N         -3.99032       -1.84371       -0.57923
H         -0.01809        4.13644       -0.01286
H          0.19918        3.11958       -1.43104
H         -2.17495        3.23200       -0.88412
H         -1.57095        1.58668       -0.66826
H         -2.14521        3.45222        1.50864
H         -2.80933        1.97471        1.19712
H          0.67623        2.35451        1.35208
H          0.76746        1.32750        0.10709
C         -0.08358        3.10170       -0.37217
C         -1.52500        2.60121       -0.25393
N          0.89677        2.30468        0.36114
N         -1.95197        2.52616        1.14018
