25
2msa1ma_60.log	Energy: -893792.7346291
S         -2.43434        0.54027        0.05626
O         -3.59100        1.40062        0.08683
O         -1.43630        0.66069        1.12989
O         -1.70772        0.76947       -1.33676
H         -0.77534        0.42302       -1.31479
C         -2.94211       -1.16214       -0.02013
H         -3.46508       -1.37751        0.91256
H         -3.61133       -1.27408       -0.87301
H         -2.05418       -1.79063       -0.11908
S          1.08900       -1.16728       -0.04362
O          0.77257       -0.21860       -1.12615
O          0.29243       -2.38392       -0.00427
O          0.99286       -0.40113        1.34452
H          0.09777        0.03210        1.39389
C          2.81706       -1.51606       -0.07144
H          3.00127       -2.07057       -0.99266
H          3.34891       -0.55330       -0.06615
H          3.04799       -2.12765        0.80092
N          3.90958        1.56372       -0.23502
H          4.75360        1.84238        0.25452
C          2.76168        2.34913        0.23079
H          2.88220        3.43462        0.11360
H          1.87169        2.03686       -0.32009
H          2.58359        2.13249        1.28681
H          4.07482        1.73581       -1.22151
