37
2msa1ma1eda_412.log	Energy: -1013354.2549580
S         -3.41937        0.26290       -0.64542
O         -4.85871        0.42225       -0.83590
O         -3.03424       -0.25581        0.71653
O         -2.61202        1.48646       -0.96713
H         -1.45304        1.76520        0.25966
C         -2.85490       -0.98794       -1.78979
H         -3.39778       -1.90961       -1.57536
H         -3.08123       -0.64206       -2.79906
H         -1.77961       -1.12432       -1.65801
S          0.85892       -1.44237        0.46768
O          0.49302       -1.22047       -0.93788
O          1.08839       -0.12748        1.19406
O          2.05680       -2.31212        0.65469
H          3.46806       -1.23589        0.53703
C         -0.50301       -2.24544        1.27818
H         -1.40822       -1.64949        1.11933
H         -0.61255       -3.22756        0.81652
H         -0.26377       -2.34619        2.33695
N         -1.14618        1.54905        1.24100
H         -1.88239        0.84015        1.45795
C         -1.17491        2.72174        2.12716
H         -0.96191        2.41681        3.15227
H         -0.42940        3.44777        1.80073
H         -2.16465        3.17624        2.07877
H         -0.23922        1.04576        1.22574
H          4.33892       -0.65934       -1.58477
H          2.66107       -0.09572       -1.45745
H          4.18310        1.69611       -2.38965
H          3.45934        2.18615       -0.85869
H          6.22372        1.29964       -1.22964
H          5.66810        2.62446       -0.45412
H          4.59963        0.07576        0.74612
H          2.90482        0.23300        0.83597
C          3.68005        0.06306       -1.09619
C          4.17025        1.48806       -1.31274
N          3.70260       -0.23287        0.36108
N          5.46692        1.65172       -0.65225
