38
2msa2dma_53.log	Energy: -1003287.9745308
S         -2.42934        0.49312       -0.20299
O         -3.70099       -0.03433        0.25833
O         -1.60787       -0.35062       -1.06973
O         -1.58677        0.87219        1.08470
C         -2.66179        2.06325       -1.00566
H         -3.19253        1.87049       -1.93843
H         -3.25190        2.69873       -0.34560
H         -1.67588        2.49187       -1.19410
S          1.60490        1.58741        0.11772
O          1.76189        1.15628       -1.28127
O          1.79228        0.50443        1.10866
O          0.30525        2.31594        0.36015
H         -0.76821        1.47509        0.82547
C          2.85669        2.81912        0.42642
H          2.71784        3.62972       -0.28900
H          2.74231        3.17903        1.44881
H          3.82980        2.34757        0.28673
N         -0.01214       -1.79971        1.22427
C          0.98611       -2.19979        2.23442
C         -1.19734       -2.67831        1.17885
H         -0.30083       -0.83026        1.39269
H          1.36819       -3.19000        1.97680
H          1.79201       -1.46783        2.22140
H          0.52344       -2.23533        3.22335
H         -0.86724       -3.70009        0.97985
H         -1.72768       -2.64316        2.13259
H         -1.85490       -2.34152        0.37843
H          0.47281       -1.77981        0.21824
N          1.18222       -1.76353       -1.17491
C          0.50108       -2.57006       -2.18545
C          2.60057       -2.08792       -1.03007
H          1.11528       -0.77283       -1.42328
H          0.50572       -3.62295       -1.88147
H         -0.53234       -2.22966       -2.27299
H          0.98556       -2.49789       -3.16935
H          2.70978       -3.11608       -0.66636
H          3.14607       -1.99801       -1.97933
H          3.04093       -1.40176       -0.30338
