37
2msa1ma1eda_452.log	Energy: -1013354.3159457
S         -1.55141       -1.98869        0.03802
O         -2.02566       -3.24638        0.56835
O         -0.71523       -1.28043        1.17524
O         -2.55609       -1.03201       -0.46707
H         -2.90411        0.59238       -0.23648
C         -0.37830       -2.25435       -1.26440
H          0.43647       -2.87814       -0.89195
H         -0.91422       -2.75248       -2.07356
H          0.00295       -1.28021       -1.58268
S          0.39790        1.76036       -0.55778
O         -0.73750        2.54646       -1.12655
O          0.97307        0.77323       -1.47924
O         -0.01468        1.14650        0.75788
H         -0.43631       -0.33193        0.94054
C          1.65391        2.95448       -0.15100
H          2.01198        3.38583       -1.08610
H          1.19703        3.72049        0.47557
H          2.45842        2.45112        0.39042
N         -3.02790        1.62235       -0.12208
H         -2.17707        2.06121       -0.57891
C         -3.08542        1.98165        1.31442
H         -3.23345        3.05695        1.41262
H         -3.90121        1.44206        1.79513
H         -2.13005        1.70148        1.75715
H         -3.86655        1.90437       -0.62428
H          1.70330       -1.36757        0.55998
H          3.10739       -2.25547        1.12145
H          4.58136       -0.34607        0.55602
H          3.27010        0.42412       -0.32723
H          2.11631        0.60829        1.83688
H          3.47977        0.10090        2.58662
H          2.63459       -1.46300       -1.66318
H          3.86540       -2.40428       -1.13580
C          2.76896       -1.53226        0.36947
C          3.49521       -0.19296        0.55085
N          2.90382       -2.13769       -0.95146
N          3.12932        0.55604        1.75053
