28
2msa1dma_13.log	Energy: -918471.3030112
S          2.20471       -0.81465        0.13287
O          2.19016       -1.45989        1.44190
O          2.93464        0.46140        0.02106
O          0.78487       -0.59389       -0.40985
C          2.92929       -1.95248       -1.03477
H          3.96280       -2.12190       -0.73104
H          2.36367       -2.88377       -1.00159
H          2.88658       -1.50493       -2.02743
S         -2.48499       -0.31862       -0.12748
O         -2.58100       -0.26831       -1.57733
O         -2.18873        0.95514        0.54952
O         -1.47320       -1.42069        0.34911
H         -0.50553       -1.17957        0.08592
C         -3.97858       -0.98565        0.56015
H         -4.77749       -0.28624        0.31289
H         -4.15845       -1.95731        0.10101
H         -3.85534       -1.07456        1.63883
N          0.29896        2.04507       -0.06130
C          0.72689        2.36410        1.32123
C          0.92592        2.87999       -1.10536
H          0.53765        1.03570       -0.24775
H          0.48357        3.40456        1.54290
H          0.19239        1.69949        1.99975
H          1.79965        2.18497        1.39543
H          0.70237        3.93181       -0.91931
H          2.00152        2.70307       -1.07258
H          0.53170        2.57958       -2.07630
H         -0.72830        2.06018       -0.10070
