35
2msa1a1tma_75.log	Energy: -978615.3214859
S          3.16754        0.75906        0.18428
O          3.57425       -0.55398        0.72441
O          2.28240        1.55079        1.02482
O          2.58584        0.58038       -1.25198
H          1.76387       -0.09114       -1.25042
C          4.64006        1.67748       -0.18132
H          5.26838        1.07739       -0.83835
H          4.34608        2.61197       -0.65838
H          5.13769        1.86837        0.76980
S         -0.63770       -0.85549       -0.59361
O         -1.69069       -1.34752       -1.47215
O          0.75482       -1.06115       -1.16591
O         -0.65140       -1.45231        0.78468
H          0.69959       -2.09913        1.08741
C         -0.84305        0.89604       -0.38021
H         -0.76342        1.36115       -1.36415
H         -1.84618        1.04779        0.03893
H         -0.06301        1.26349        0.28922
N          1.68561       -2.54582        1.14322
H          2.40188       -1.79442        1.05432
H          1.77741       -3.16323        0.33911
H          1.81611       -3.06680        2.00572
N         -4.06415        0.78216        0.34773
C         -4.18433       -0.52982        0.96410
H         -3.58541       -1.25291        0.40554
H         -3.80471       -0.49185        1.98944
H         -5.23341       -0.88357        0.99090
C         -4.81773        1.78344        1.07779
H         -4.46793        1.83003        2.11372
H         -4.66886        2.76731        0.62187
H         -5.90483        1.57086        1.08997
C         -4.44763        0.74018       -1.05409
H         -4.29226        1.72416       -1.50899
H         -3.82380        0.01242       -1.58020
H         -5.51060        0.46302       -1.19146
