30
2msa1eda_152.log	Energy: -953188.0039233
S         -2.05032       -1.06682       -0.24763
O         -2.87033       -1.96973       -1.01874
O         -1.06975       -0.21662       -0.95452
O         -1.26522       -1.91650        0.83637
H         -0.38083       -1.50928        1.04926
C         -3.07227       -0.00917        0.74185
H         -3.68339        0.58160        0.05785
H         -3.70256       -0.65162        1.35711
H         -2.41676        0.62879        1.34631
S          2.17009       -0.95186        0.15584
O          3.03779       -2.10013        0.25811
O          1.10437       -0.76608        1.16095
O          1.48266       -0.97072       -1.27548
H          0.53890       -0.65980       -1.22102
C          3.12398        0.54002        0.12974
H          3.57861        0.64675        1.11543
H          3.89033        0.42874       -0.63796
H          2.43459        1.35836       -0.10651
H          0.81545        4.02447        0.15161
H         -0.39749        4.23865       -1.12144
H         -1.53826        3.72962        0.94470
H         -1.75092        2.41111       -0.19798
H          0.02579        1.24195        1.05448
H         -0.05812        2.41164        2.19514
H          0.07790        1.84493       -1.67437
H          1.37397        2.81337       -1.89757
C          0.07298        3.49505       -0.45874
C         -1.01254        2.90918        0.44467
N          0.75759        2.42682       -1.19008
N         -0.57936        1.95421        1.45507
