37
2msa1ma1eda_346.log	Energy: -1013356.4636847
S          1.01598        1.83705       -0.39354
O          0.94867        1.52443       -1.82619
O          2.35818        1.85128        0.20119
O          0.09835        0.90191        0.40094
C          0.30210        3.45408       -0.15125
H          0.93167        4.17112       -0.67870
H         -0.70632        3.45383       -0.56660
H          0.28669        3.66666        0.91772
S         -3.00137       -0.50700        0.28437
O         -2.82545       -1.04452        1.62301
O         -2.49802       -1.32892       -0.82665
O         -2.41587        0.94842        0.17521
H         -1.38461        0.95923        0.26727
C         -4.71386       -0.15360       -0.01569
H         -5.24205       -1.10628        0.03100
H         -5.06457        0.52160        0.76429
H         -4.80878        0.29675       -1.00304
N          3.34291       -0.54689        1.76568
H          4.24368       -0.50686        2.23103
C          2.26484       -0.66605        2.75028
H          2.30309        0.08837        3.54781
H          1.30514       -0.54606        2.24097
H          2.28762       -1.65786        3.21259
H          3.22815        0.32889        1.25503
H          0.88867       -2.59927       -2.41810
H          0.84210       -0.80451       -2.48131
H          3.21896       -1.81597       -2.30924
H          2.80493       -0.61162       -1.09198
H          3.37043       -3.36210       -0.61482
H          3.19864       -2.08640        0.45839
H         -0.69999       -1.86455       -0.79396
H          0.74960       -2.35590       -0.01498
C          1.11531       -1.67404       -1.88232
C          2.58176       -1.62624       -1.43969
N          0.29947       -1.66972       -0.64115
N          2.79367       -2.57546       -0.34888
H          0.33301       -0.73108       -0.18444
