35
2msa1a1tma_10.log	Energy: -978633.2409914
S          2.52081        0.00510       -0.22976
O          1.69538        0.88423       -1.07563
O          2.31380       -1.44869       -0.49560
O          2.38427        0.30868        1.23030
H          1.47602       -1.08045        2.06015
C          4.22452        0.34205       -0.64274
H          4.36499        0.12024       -1.70089
H          4.41917        1.39589       -0.44228
H          4.86241       -0.29210       -0.02706
S         -2.08231       -1.30164       -0.26520
O         -3.32783       -2.05122       -0.14308
O         -1.38912       -1.06077        1.05188
O         -2.20956       -0.00254       -0.99657
H         -1.48239        1.23117       -0.30531
C         -0.94680       -2.27719       -1.24032
H         -0.83061       -3.24976       -0.75823
H         -1.39266       -2.40639       -2.22693
H          0.01162       -1.75804       -1.31363
N          0.96996       -1.95054        1.81120
H          1.01222       -2.65942        2.53557
H          1.45803       -2.22733        0.93853
H         -0.02843       -1.68439        1.55328
N         -1.30927        2.18504        0.13298
C         -0.60652        3.01830       -0.87287
H          0.35676        2.55170       -1.08259
H         -1.21128        3.05047       -1.78008
H         -0.47559        4.02629       -0.47063
C         -2.66555        2.69807        0.43508
H         -3.23781        2.74377       -0.49144
H         -3.15462        2.00551        1.12039
H         -2.58556        3.69014        0.88605
C         -0.50414        2.00690        1.36628
H         -1.02714        1.30155        2.01205
H          0.47282        1.60051        1.10259
H         -0.39342        2.97749        1.85743
