38
2msa2dma_64.log	Energy: -1003286.7512136
S          0.84364        1.87195       -0.19048
O         -0.35591        1.92454        0.71248
O          0.53980        1.30122       -1.51071
O          1.97890        1.20148        0.50502
C          1.33874        3.56577       -0.43111
H          0.51955        4.08625       -0.92764
H          1.54453        4.00726        0.54371
H          2.23223        3.56805       -1.05575
S         -2.59871       -0.56721       -0.30196
O         -3.92796       -1.11947       -0.16513
O         -1.48857       -1.27196        0.36267
O         -2.64294        0.92097        0.20728
H         -1.71555        1.31723        0.35626
C         -2.17565       -0.41243       -2.02016
H         -2.10771       -1.42184       -2.42825
H         -2.97423        0.14700       -2.50757
H         -1.21779        0.11038       -2.08945
N          0.71670       -0.79339        1.95323
C          1.41086       -2.07332        2.21848
C          0.11878       -0.14644        3.14234
H          1.35583       -0.11701        1.48194
H          0.68331       -2.80177        2.57976
H          1.86575       -2.39393        1.27686
H          2.18064       -1.90865        2.97465
H         -0.63745       -0.81005        3.56368
H          0.90241        0.04588        3.87661
H         -0.33406        0.79098        2.81947
H         -0.04731       -0.95410        1.26974
N          2.37873       -1.60917       -0.85441
C          1.28234       -2.04541       -1.70753
C          3.68387       -1.92292       -1.41511
H          2.31220       -0.60248       -0.72358
H          1.31538       -3.13597       -1.81365
H          0.33038       -1.77983       -1.24146
H          1.31293       -1.60106       -2.71625
H          3.81171       -3.01009       -1.46860
H          3.83201       -1.51708       -2.43060
H          4.46842       -1.52273       -0.76687
