30
2msa1eda_147.log	Energy: -953186.1413434
S         -2.42053        0.23106       -0.06122
O         -2.56308        1.54800       -0.64576
O         -1.49081        0.09788        1.07462
O         -2.05295       -0.85117       -1.15098
H         -1.05918       -1.00074       -1.19381
C         -4.00814       -0.37808        0.44167
H         -4.39026        0.31909        1.18788
H         -4.65612       -0.39745       -0.43462
H         -3.87981       -1.37411        0.86364
S          1.27563       -1.82739       -0.01784
O          0.53030       -1.15017       -1.09979
O          1.10680       -3.25812        0.11946
O          0.91376       -1.09857        1.34856
H          0.04835       -0.62250        1.27583
C          2.98141       -1.40309       -0.17669
H          3.32653       -1.84787       -1.11113
H          3.07050       -0.30595       -0.17861
H          3.50440       -1.84502        0.67234
H          2.42695        3.75164       -0.52857
H          2.49512        2.46462       -1.74234
H          0.16865        2.88442       -1.08710
H          0.66847        1.26277       -0.60443
H          0.35893        3.55222        1.18401
H         -0.31914        2.06748        1.28520
H          4.09725        2.20717        0.15452
H          2.79350        1.91550        1.10994
C          2.27778        2.67040       -0.68831
C          0.82048        2.32674       -0.40015
N          3.14759        1.85059        0.15670
N          0.52140        2.56533        1.01246
