35
2msa1a1tma_34.log	Energy: -978627.2670448
S         -0.82084        1.66335        0.33648
O         -0.31035        1.05552       -0.93997
O          0.18762        1.70068        1.40120
O         -2.10155        1.00151        0.71767
C         -1.24097        3.35024       -0.06228
H         -0.32952        3.85816       -0.37832
H         -1.97763        3.34423       -0.86593
H         -1.64995        3.81634        0.83436
S          2.78681       -0.51785       -0.23981
O          4.00079       -1.06482       -0.80998
O          1.72536       -1.43329        0.18588
O          2.19474        0.50269       -1.29572
H          1.22284        0.71184       -1.12005
C          3.19949        0.52094        1.14326
H          3.61334       -0.12761        1.91655
H          3.94369        1.24382        0.80912
H          2.28440        1.01239        1.48123
N         -3.08601        0.04689       -2.00996
H         -2.12972        0.39816       -2.05292
H         -3.57791        0.66207       -1.36866
H         -3.50372        0.15054       -2.92847
N         -1.87471       -1.70846        0.39192
C         -1.09951       -1.89528        1.64687
H         -0.09397       -1.50306        1.49078
H         -1.59789       -1.34641        2.44593
H         -1.05451       -2.96182        1.87748
C         -3.27311       -2.18070        0.51695
H         -3.74582       -1.65715        1.34885
H         -3.78815       -1.94447       -0.41468
H         -3.27155       -3.25730        0.70147
C         -1.18934       -2.31878       -0.77758
H         -1.77386       -2.08041       -1.66526
H         -0.18499       -1.90111       -0.84492
H         -1.13258       -3.39828       -0.61918
H         -1.93520       -0.67370        0.25639
