38
2msa2dma_142.log	Energy: -1003279.9736721
S         -0.07518       -1.98682       -0.00297
O         -1.14694       -2.88945        0.43096
O          0.67198       -1.30495        1.06833
O         -0.63534       -0.96764       -0.99334
H         -0.08317        0.47918       -1.07144
C          1.10592       -2.92969       -0.94751
H          1.53455       -3.67972       -0.28214
H          0.58563       -3.40274       -1.78011
H          1.87839       -2.24892       -1.30786
S         -0.20251        2.40888       -0.02850
O          0.08715        3.75696       -0.46074
O          0.22669        1.43817       -1.19861
O         -1.59055        2.09311        0.36279
H         -2.23127       -0.65648       -0.44827
C          0.84880        1.94974        1.32335
H          1.88873        2.02098        0.99609
H          0.63294        2.63990        2.13991
H          0.62410        0.91562        1.59317
N         -3.04766       -0.18242        0.00549
C         -3.20740       -0.71600        1.37904
C         -4.24603       -0.30185       -0.84720
H         -2.71650        0.79897        0.06913
H         -3.38637       -1.78909        1.32439
H         -2.27853       -0.54168        1.92153
H         -4.03414       -0.19816        1.86765
H         -4.49267       -1.35764       -0.96494
H         -5.07927        0.22528       -0.38025
H         -4.03143        0.13724       -1.82142
N          3.37250        0.08140        0.28943
C          4.49911       -0.61355        0.88517
C          3.48924        0.21069       -1.15179
H          2.51082       -0.40210        0.53148
H          5.41063       -0.01838        0.75907
H          4.32738       -0.74573        1.95657
H          4.68705       -1.60808        0.43938
H          4.33390        0.86434       -1.39705
H          3.66326       -0.75277       -1.66978
H          2.58346        0.66826       -1.55764
