42
2msa2eda_448.log	Energy: -1072749.1404298
S         -0.49950       -1.76236        0.44267
O         -0.10200       -0.73212        1.42737
O         -0.08207       -1.40894       -0.95326
O         -1.96444       -2.04409        0.45888
H         -2.43223       -1.02009       -1.01591
C          0.35940       -3.25969        0.86288
H          1.42652       -3.05611        0.74899
H          0.10763       -3.51898        1.89136
H          0.03777       -4.03849        0.17151
S          3.22683       -0.26252       -0.39987
O          4.38802        0.33862       -1.02520
O          3.18062       -1.70452       -0.17758
O          1.96280        0.15698       -1.27940
H          1.20893       -0.49647       -1.15167
C          2.91114        0.54967        1.14867
H          3.78791        0.38333        1.77641
H          2.74413        1.61299        0.96632
H          2.01784        0.09771        1.58399
H         -4.09515        1.36443       -1.50353
H         -4.62099       -0.20433       -2.15878
H         -5.59929        0.29727        0.07495
H         -4.67674       -1.21006        0.04798
H         -4.31433        0.54645        1.92040
H         -3.02552       -0.24234        1.30461
H         -2.30177       -0.19956       -2.45529
H         -1.96849        0.61726       -0.98233
C         -4.04186        0.28069       -1.36850
C         -4.58866       -0.11521        0.00182
N         -2.61778       -0.11758       -1.49184
N         -3.76275        0.42577        1.07914
H         -0.79479        4.34333        0.61863
H          0.72082        4.52585       -0.27569
H         -0.83798        3.14395       -1.52311
H          0.58296        2.18967       -1.06596
H         -0.63595        1.04878        0.54392
H         -1.92378        2.06581        0.48336
H          1.26171        4.03818        1.96570
H          0.37076        2.67158        1.97741
C          0.11036        3.80730        0.28121
C         -0.30567        2.69423       -0.67631
N          0.91684        3.28560        1.38041
N         -1.16614        1.67028       -0.07244
