37
2msa1ma1eda_460.log	Energy: -1013351.5117313
S          0.27154        2.05536       -0.41625
O          1.07792        3.20235       -0.02462
O         -0.19950        1.23448        0.77393
O          0.91680        1.13018       -1.39593
H          0.97542       -0.35337       -0.73832
C         -1.21510        2.65036       -1.19958
H         -1.73258        3.29927       -0.49215
H         -0.91283        3.21478       -2.08225
H         -1.83465        1.79586       -1.47822
S         -2.69257       -0.88438        0.16410
O         -1.66932       -1.92739        0.35363
O         -2.86444       -0.39198       -1.19545
O         -2.44917        0.29007        1.16462
H         -1.50906        0.73980        0.99944
C         -4.23325       -1.50704        0.78430
H         -4.50929       -2.35347        0.15485
H         -4.08857       -1.81889        1.81799
H         -4.97528       -0.71251        0.71080
N          2.40559        0.25346        2.31972
H          2.53298       -0.75094        2.36055
C          3.29748        0.89318        1.36444
H          3.18713        0.55664        0.31922
H          3.10779        1.96833        1.36465
H          4.33761        0.73312        1.66802
H          1.43527        0.48923        2.13519
H          1.37953       -3.29216       -0.97723
H          1.22848       -2.08936       -2.27563
H          3.62537       -2.71195       -1.96247
H          3.35444       -1.01968       -1.53148
H          3.82906       -3.21056        0.33663
H          4.42616       -1.68253        0.34620
H          0.02223       -1.58885       -0.09276
H          1.55365       -1.29653        0.52645
C          1.63370       -2.27237       -1.27878
C          3.14244       -2.05109       -1.23171
N          0.99530       -1.33113       -0.33500
N          3.60679       -2.24117        0.14149
