40
2msa1dma1eda_33.log	Energy: -1038036.0163154
S          2.76904       -0.34549       -0.33037
O          2.61661       -1.82577       -0.39013
O          2.20491        0.23157        0.91693
O          2.25535        0.34717       -1.54215
C          4.52879       -0.05444       -0.29483
H          4.93786       -0.54647        0.58764
H          4.96000       -0.47231       -1.20459
H          4.69524        1.02189       -0.24774
S         -2.68855       -0.37423       -0.22634
O         -2.98770       -1.17594        0.96945
O         -1.54338       -0.92775       -1.01905
O         -2.47069        1.07733        0.03553
C         -4.11294       -0.46754       -1.29769
H         -4.30388       -1.51827       -1.51681
H         -4.95957       -0.02612       -0.77137
H         -3.89587        0.08365       -2.21265
N          0.10531       -2.46781        0.49183
C         -0.38781       -3.83892        0.26424
C          0.03601       -2.02726        1.90481
H          1.08564       -2.35241        0.14485
H         -1.43271       -3.89090        0.57464
H         -0.30678       -4.06790       -0.79843
H          0.21344       -4.54264        0.84245
H         -1.01353       -1.94103        2.19024
H          0.55780       -2.75503        2.52918
H          0.53851       -1.06177        1.97848
H         -0.48292       -1.82392       -0.09279
H          1.02737        3.62608       -0.89791
H         -0.53768        3.28891       -1.66747
H         -0.82841        4.98214        0.13194
H         -1.68536        3.48111        0.51605
H          0.78767        4.39992        1.77295
H         -0.55548        3.74960        2.45808
H          0.76091        1.25114       -1.06316
H          0.65466        1.68661        0.51037
C          0.02765        3.21344       -0.73635
C         -0.69240        3.92662        0.40479
N          0.17261        1.78440       -0.39368
N          0.04662        3.72085        1.64572
H         -0.77334        1.35697       -0.29811
