31
2msa1tma_15.log	Energy: -943125.4640988
S         -3.09733       -0.39654       -0.05329
O         -4.13708       -0.19217       -1.04579
O         -2.76037        0.69956        0.84935
O         -1.77585       -0.93804       -0.74091
H         -1.09486       -0.19436       -0.88284
C         -3.51972       -1.83085        0.91386
H         -4.46407       -1.60958        1.41224
H         -3.63471       -2.67862        0.23861
H         -2.72809       -2.00602        1.64159
S          0.82841        1.37754       -0.01831
O         -0.00769        0.86471       -1.14252
O          2.10195        1.95614       -0.47873
O          1.05513        0.29802        1.01024
H          2.22365       -0.54511        0.50817
C         -0.11996        2.63528        0.80015
H         -0.27922        3.43961        0.08141
H         -1.07078        2.18907        1.09750
H          0.45073        2.98789        1.65916
N          3.04629       -1.10156        0.07913
C          3.09091       -2.41649        0.75279
H          3.24572       -2.26170        1.82103
H          2.13848       -2.92373        0.59559
H          3.90679       -3.01494        0.34001
C          2.74844       -1.22705       -1.37051
H          1.78856       -1.73039       -1.48955
H          2.67614       -0.22524       -1.79525
H          3.54463       -1.79822       -1.85427
C          4.26907       -0.29705        0.31593
H          4.10498        0.69204       -0.11420
H          4.42306       -0.20172        1.39132
H          5.12675       -0.79298       -0.14540
