37
2msa1ma1eda_199.log	Energy: -1013361.9654116
S          1.26200       -1.54725       -0.69702
O         -0.00709       -2.06522       -1.27721
O          1.23213       -1.49786        0.78462
O          1.68767       -0.25401       -1.29841
C          2.50068       -2.73877       -1.16565
H          3.45912       -2.40430       -0.76763
H          2.22101       -3.70254       -0.74029
H          2.52990       -2.78967       -2.25395
S         -2.62902       -0.54724        0.45377
O         -4.05119       -0.35895        0.63881
O         -1.77147        0.64751        0.46807
O         -2.42647       -1.31376       -0.90434
H         -1.45151       -1.54223       -1.07333
C         -1.98909       -1.67156        1.67403
H         -2.14804       -1.20602        2.64765
H         -2.54960       -2.60316        1.59659
H         -0.92303       -1.82247        1.48254
N          2.69683        0.77827        2.04201
H          2.86626        0.94574        3.02784
C          3.95307        0.77789        1.28441
H          4.67262        0.02343        1.62660
H          3.72571        0.58069        0.23257
H          4.42696        1.76098        1.35421
H          2.24746       -0.13456        1.94433
H          0.78224        3.90299        0.50110
H          1.87663        3.25891       -0.75159
H          0.00872        4.35040       -1.83328
H         -0.13393        2.61274       -2.11360
H         -2.17594        3.97347       -1.29640
H         -1.90446        2.57223       -0.49641
H          1.47316        1.64037        1.07500
H         -0.15418        1.58299        0.61219
C          0.88385        3.17055       -0.30244
C         -0.20699        3.39645       -1.34259
N          0.79233        1.81396        0.28540
N         -1.51336        3.48779       -0.70481
H          1.03489        1.08279       -0.41931
