40
2msa1dma1eda_571.log	Energy: -1038003.3764919
S         -2.73240       -1.30990       -0.14914
O         -3.58216       -0.56715       -1.06601
O         -2.42091       -0.73860        1.15614
O         -1.40345       -1.70230       -0.90734
H         -0.56419       -1.48388       -0.38103
C         -3.46727       -2.91318        0.10143
H         -4.43178       -2.75522        0.58521
H         -3.59884       -3.38550       -0.87189
H         -2.80663       -3.50171        0.73776
S          1.55324       -0.12206        0.66086
O          0.81077       -1.36437        0.32538
O          1.92912        0.68310       -0.52374
O          2.78350       -0.45492        1.47368
H          3.96917       -0.46440        0.60576
C          0.51669        0.85891        1.71023
H         -0.35779        1.14400        1.12132
H          0.22571        0.24834        2.56464
H          1.08329        1.73586        2.02326
N          4.80202       -0.44157       -0.11330
C          5.08385        0.97648       -0.43871
C          4.40139       -1.25293       -1.28856
H          5.60930       -0.86504        0.34107
H          4.15529        1.41189       -0.81059
H          5.38713        1.49120        0.47324
H          5.87444        1.03713       -1.18923
H          3.50229       -0.80020       -1.70861
H          5.20831       -1.26751       -2.02365
H          4.17067       -2.26430       -0.95319
H         -3.49359        2.61019       -0.87613
H         -2.88768        4.12476       -0.18507
H         -1.41046        3.40292       -1.95694
H         -0.56483        3.31170       -0.39933
H         -1.72783        0.98531       -1.76820
H         -0.12489        1.28302       -1.49307
H         -3.46525        2.70180        1.59600
H         -2.55338        1.47498        1.03170
C         -2.68703        3.04996       -0.26444
C         -1.36418        2.85961       -0.99793
N         -2.61716        2.48958        1.08210
N         -1.06594        1.44013       -1.14702
