32
2msa1a1dma_114.log	Energy: -953954.6369730
S          1.70112        1.09013        0.16131
O          1.09878        1.51089        1.42695
O          1.49341       -0.37524       -0.13898
O          3.16109        1.41916        0.03175
H          4.05856       -0.00955       -0.08276
C          0.87696        1.96894       -1.14983
H         -0.18163        1.70037       -1.13194
H          1.01261        3.03537       -0.96705
H          1.33061        1.68067       -2.09826
S         -2.76752       -0.17184       -0.16001
O         -2.25413        0.78302       -1.12955
O         -3.25149       -1.46547       -0.64840
O         -3.93816        0.50811        0.67459
H         -4.82142        0.02838        0.48646
C         -1.54502       -0.42804        1.09564
H         -0.66154       -0.84845        0.60968
H         -1.28020        0.53573        1.53221
H         -1.95683       -1.10791        1.84112
N         -6.09777       -0.90185        0.04492
H         -5.57486       -1.61690       -0.45812
H         -6.74767       -0.46500       -0.60006
H         -6.63120       -1.34740        0.78359
N          4.03065       -1.06285       -0.10700
C          4.46321       -1.60386        1.19480
C          4.72891       -1.60667       -1.28310
H          2.98170       -1.14416       -0.19714
H          5.52452       -1.39778        1.34319
H          3.88029       -1.11566        1.97648
H          4.28714       -2.68060        1.22045
H          5.79749       -1.39970       -1.20279
H          4.56633       -2.68433       -1.34052
H          4.32803       -1.12872       -2.17707
