38
2msa1ma1tma_67.log	Energy: -1003279.5638519
S          0.39727       -1.05833       -0.55423
O         -0.83146       -1.85814       -0.82893
O          0.29580       -0.29061        0.70861
O          0.76352       -0.17475       -1.70540
H          0.05367        1.27176       -1.51556
C          1.71976       -2.23147       -0.39136
H          1.46009       -2.91172        0.42034
H          1.80359       -2.77243       -1.33417
H          2.63961       -1.67935       -0.16609
S         -3.50473        0.10732        0.36593
O         -4.93645        0.24196        0.51501
O         -2.75145        1.32050       -0.00120
O         -3.24070       -1.01973       -0.69626
H         -2.26188       -1.29853       -0.76858
C         -2.78148       -0.52788        1.86081
H         -2.98431        0.20503        2.64274
H         -3.26409       -1.47845        2.08769
H         -1.70563       -0.64137        1.70156
N         -0.44449        2.14375       -1.17511
H         -0.64661        2.75617       -1.96182
C          0.36802        2.81124       -0.13073
H         -0.18458        3.65607        0.27981
H          0.56161        2.06862        0.64328
H          1.30920        3.14877       -0.56531
H         -1.34807        1.81355       -0.77048
N          4.18646       -0.03918        0.44446
C          3.53346        0.35702        1.68162
H          2.45204        0.41095        1.52767
H          3.72690       -0.39104        2.45641
H          3.89601        1.33639        2.05183
C          5.61569       -0.21270        0.63136
H          5.80026       -0.96244        1.40632
H          6.07316       -0.56328       -0.29850
H          6.11978        0.72615        0.93259
C          3.90342        0.90361       -0.62354
H          4.37970        0.56884       -1.54969
H          2.82554        0.94470       -0.80296
H          4.27240        1.92318       -0.39321
