40
2msa1dma1eda_400.log	Energy: -1038013.6625456
S         -0.62947        1.77506        0.07171
O          0.66004        1.70575       -0.66992
O         -0.53692        1.26451        1.45415
O         -1.74760        1.12614       -0.67953
C         -1.04087        3.50732        0.15490
H         -1.11807        3.88885       -0.86332
H         -1.99025        3.61018        0.68061
H         -0.24279        4.01504        0.69703
S          3.52095       -0.43974       -0.24763
O          2.94364       -0.70174       -1.55772
O          3.61392       -1.53240        0.71125
O          2.77589        0.77125        0.44473
H          1.94714        1.09383       -0.04699
C          5.14937        0.24932       -0.45246
H          5.78159       -0.53662       -0.86707
H          5.08267        1.09426       -1.13732
H          5.51679        0.56175        0.52482
N         -4.75566       -1.19016       -0.12109
C         -4.57746       -1.02694       -1.56604
C         -5.08086        0.07707        0.53786
H         -5.49216       -1.86515        0.05667
H         -3.72490       -0.36413       -1.74799
H         -4.37007       -1.99748       -2.02415
H         -5.45800       -0.58649       -2.05571
H         -4.23931        0.76681        0.41363
H         -5.97815        0.55526        0.11897
H         -5.23761       -0.09226        1.60609
H         -1.35504       -3.28789        0.38857
H         -1.41622       -2.38743       -1.15366
H          0.94723       -2.71010       -0.22789
H          0.50829       -1.04131       -0.53204
H          1.45287       -1.93860        1.79407
H          0.49769       -0.62622        1.70600
H         -3.06102       -1.52235        0.46222
H         -1.73829       -1.20478        1.51472
C         -1.15664       -2.32772       -0.09400
C          0.29477       -1.90296        0.11323
N         -2.03530       -1.31366        0.53974
N          0.52364       -1.62955        1.53100
H         -1.90633       -0.38125        0.07523
