43
2msa1eda1tma_252.log	Energy: -1062668.7578504
S          2.86279        0.40976        0.00207
O          2.52401        0.06373        1.38515
O          2.39011        1.69046       -0.50309
O          2.45527       -0.76411       -0.96186
H          1.43396       -0.92133       -0.94243
C          4.62806        0.32107       -0.18316
H          5.04952        1.10047        0.45232
H          4.96321       -0.66488        0.13690
H          4.87135        0.50169       -1.22975
S         -1.08769       -1.06516       -1.79788
O         -0.91008       -2.06593       -2.84063
O         -0.01585       -1.08633       -0.73254
O         -2.40898       -1.11883       -1.08845
H         -2.24019       -1.19108        0.47349
C         -0.98740        0.55047       -2.54530
H         -0.00174        0.64279       -3.00366
H         -1.76666        0.60754       -3.30629
H         -1.12973        1.32021       -1.78149
H         -2.10919       -2.76614        2.99816
H         -1.91992       -3.33524        1.31923
H          0.27903       -3.19848        2.68994
H          0.28492       -2.33184        1.14355
H          0.26404       -1.12856        3.77403
H          0.91864       -0.59178        2.35831
H         -3.18218       -1.09337        1.86587
H         -1.59610       -0.53704        1.94355
C         -1.66341       -2.54379        2.02493
C         -0.14349       -2.34578        2.14689
N         -2.23267       -1.25721        1.54183
N          0.11159       -1.05349        2.77560
N         -1.70567        2.64972        0.19289
C         -1.74138        4.04918        0.57554
H         -0.76346        4.50481        0.39825
H         -2.48208        4.58278       -0.02751
H         -1.99839        4.18947        1.64421
C         -3.00312        2.02199        0.34467
H         -3.76147        2.59199       -0.20009
H         -2.98009        1.01345       -0.07999
H         -3.32156        1.96412        1.40816
C         -0.67708        1.93013        0.92397
H         -0.57741        0.91178        0.53627
H          0.29322        2.41072        0.78422
H         -0.89109        1.87959        2.01163
