32
2msa1a1dma_133.log	Energy: -953955.9401219
S          3.18648       -0.26907        0.22109
O          4.62222       -0.38432        0.33587
O          2.46815       -1.41617       -0.36637
O          2.87253        1.02953       -0.60318
H          1.88739        1.28887       -0.58702
C          2.45760        0.04429        1.81394
H          2.69205       -0.81684        2.44115
H          2.91140        0.94907        2.21826
H          1.37746        0.15656        1.68835
S         -0.77690        0.93619       -0.39935
O          0.44091        1.79404       -0.41761
O         -0.74290       -0.05622        0.71039
O         -1.02650        0.26557       -1.71039
H         -0.45875       -1.30614       -1.55455
C         -2.13964        2.03601       -0.11414
H         -1.95739        2.54705        0.83178
H         -2.16547        2.75054       -0.93718
H         -3.06121        1.44468       -0.06768
N         -0.05772       -2.12145       -1.01746
H          0.94977       -1.90774       -0.83287
H         -0.17909       -3.01640       -1.48098
H         -0.53459       -2.07898       -0.11302
N         -4.57084       -0.22519        0.44612
C         -4.01732       -0.52494        1.75982
C         -4.18593       -1.19685       -0.56496
H         -5.58126       -0.16684        0.50052
H         -2.92565       -0.45172        1.71301
H         -4.37531        0.21044        2.48556
H         -4.28030       -1.53299        2.12608
H         -3.11010       -1.11119       -0.75071
H         -4.40966       -2.24103       -0.28090
H         -4.69610       -0.97523       -1.50585
