30
2msa1eda_117.log	Energy: -953194.4237719
S         -2.59843       -0.57534        0.09324
O         -3.11446        0.38749        1.07545
O         -1.37083       -1.28761        0.53217
O         -2.39956        0.03701       -1.26843
C         -3.85597       -1.82032       -0.14886
H         -3.49801       -2.53872       -0.88650
H         -4.03206       -2.30582        0.81145
H         -4.76115       -1.32466       -0.49999
S          2.41217       -0.97984        0.00596
O          2.06935       -0.20452       -1.17987
O          2.44792       -0.31366        1.29749
O          3.89176       -1.59059       -0.25915
H          4.45586       -1.34444        0.48820
C          1.42233       -2.44155        0.04942
H          1.56927       -2.96635       -0.89479
H          1.74494       -3.04477        0.89783
H          0.38024       -2.11233        0.16571
H         -1.17475        2.22041        0.71733
H          0.00134        0.93989        0.98925
H          0.91966        3.16068        1.72390
H          1.87328        2.46670        0.41252
H         -0.06631        4.64737        0.13007
H          1.49394        4.60201       -0.35640
H         -1.12764        0.96277       -1.23081
H         -0.20405        2.40534       -1.53839
C         -0.18385        1.85855        0.43120
C          0.89939        2.90196        0.65772
N         -0.23961        1.52409       -1.01751
N          0.66057        4.03966       -0.23393
H          0.57407        0.95157       -1.27467
