29
2msa1a1ma_91.log	Energy: -929298.1082231
S          2.05403        0.56890       -0.05224
O          2.65577       -0.30865       -1.09469
O          1.90584       -0.13865        1.24340
O          0.77704        1.19493       -0.50611
H         -0.45419        0.28940       -0.91197
C          3.18385        1.92134        0.19100
H          4.13209        1.50853        0.53512
H          3.30725        2.43407       -0.76279
H          2.75874        2.58919        0.94032
S         -1.75185       -1.23492       -0.02545
O         -3.14640       -1.53945       -0.24947
O         -1.31611       -0.19172       -1.12750
O         -0.81062       -2.37461       -0.04822
H          0.81919       -2.59892       -0.07071
C         -1.52421       -0.37943        1.51293
H         -2.01323        0.59855        1.43975
H         -1.96919       -1.01062        2.28348
H         -0.45173       -0.24863        1.67832
N          1.86553       -2.63845        0.00688
H          2.26643       -1.93358       -0.65876
H          2.22153       -3.57794       -0.13947
H          2.10628       -2.26683        0.93060
N         -1.81702        2.71950        0.58585
H         -1.74719        3.58146        1.11545
C         -2.77131        2.86392       -0.51395
H         -2.51789        3.65283       -1.23707
H         -2.83646        1.91632       -1.05430
H         -3.76271        3.07936       -0.10532
H         -0.88744        2.50598        0.23205
