38
2msa2dma_207.log	Energy: -1003271.2163947
S          2.10466       -0.11622        0.03104
O          1.64444        1.15538        0.57962
O          2.71676       -1.06666        0.96430
O          3.11109        0.13910       -1.15489
H          4.12331        0.08196       -0.81655
C          0.76362       -0.89838       -0.82224
H         -0.01617       -1.10275       -0.08533
H          0.36941       -0.20793       -1.56923
H          1.13860       -1.81552       -1.27564
S         -2.40603        0.89539       -0.26012
O         -1.92231        0.85974       -1.64329
O         -2.20454       -0.36447        0.50126
O         -3.87079        1.30288       -0.16852
H         -4.68563        0.16397        0.03362
C         -1.52824        2.18608        0.59397
H         -0.46529        1.93205        0.58768
H         -1.70725        3.12134        0.06293
H         -1.90731        2.24163        1.61458
N         -5.26200       -0.78692        0.18677
C         -5.04257       -1.23669        1.57957
C         -4.78799       -1.75535       -0.82905
H         -6.24689       -0.57843        0.03437
H         -3.96435       -1.32460        1.72235
H         -5.43658       -0.48094        2.25982
H         -5.54037       -2.19404        1.74991
H         -3.72030       -1.90620       -0.66284
H         -5.33221       -2.69764       -0.73502
H         -4.93661       -1.32359       -1.81922
N          5.52383       -0.03235       -0.30446
C          5.81236       -1.45791       -0.10792
C          5.60298        0.73834        0.94306
H          6.17076        0.35698       -0.98448
H          5.03741       -1.87468        0.53965
H          5.77248       -1.97014       -1.07178
H          6.79734       -1.62059        0.34893
H          4.84373        0.35961        1.63158
H          6.59015        0.65503        1.41599
H          5.38661        1.78831        0.73541
