40
2msa1dma1eda_536.log	Energy: -1038006.5401939
S         -1.15714        2.12655       -0.38165
O         -1.10334        3.31621       -1.21840
O         -1.04688        0.82687       -1.13454
O         -2.35561        2.06592        0.51994
H         -3.14757        0.80312        0.77771
C          0.25217        2.15308        0.71552
H          1.15444        2.24210        0.10931
H          0.15093        3.01824        1.37124
H          0.26757        1.22175        1.28383
S          1.08437       -1.73778       -0.44272
O          0.32081       -2.81292       -1.06183
O          0.68001       -1.35141        0.91611
O          1.10745       -0.45991       -1.36570
H          0.22865        0.07919       -1.30475
C          2.80826       -2.15006       -0.46186
H          2.90988       -3.06326        0.12614
H          3.09005       -2.33458       -1.49877
H          3.39691       -1.33368       -0.02714
N          4.33406        0.57962        0.72640
C          3.44080        0.75746        1.86329
C          3.95227        1.38085       -0.42906
H          5.28389        0.80494        0.99882
H          2.46861        0.30581        1.64126
H          3.85102        0.24312        2.73634
H          3.27511        1.81696        2.12575
H          3.00621        1.00805       -0.83516
H          3.82829        2.45283       -0.19709
H          4.70938        1.28217       -1.21148
H         -4.81043       -1.63188        0.16437
H         -4.11846       -0.45731       -0.98962
H         -2.77607       -2.65821       -0.82126
H         -1.87269       -1.17572       -0.53103
H         -2.54630       -3.18367        1.43047
H         -1.26439       -2.15806        1.34458
H         -4.64989        0.32688        1.41161
H         -3.27608       -0.58502        1.78185
C         -3.94375       -1.00418       -0.06200
C         -2.65024       -1.82356       -0.12557
N         -3.77109       -0.03646        1.05282
N         -2.27313       -2.22941        1.22883
