40
2msa1dma1eda_459.log	Energy: -1038011.6415196
S          1.59167        1.95848       -0.00308
O          1.91365        1.24633        1.22416
O          0.41611        2.84226        0.03963
O          1.48376        0.97767       -1.21841
H          0.62130        0.38543       -1.19806
C          2.99396        2.91549       -0.51939
H          3.17168        3.65868        0.25836
H          3.84631        2.24244       -0.61093
H          2.76194        3.39284       -1.47064
S         -1.01578       -1.57926       -0.49224
O         -0.67726       -0.27757       -1.23919
O         -2.43729       -1.89555       -0.70700
O         -0.60694       -1.46916        0.91511
H         -2.04972        0.81468        1.29524
C         -0.02678       -2.82410       -1.28362
H         -0.26627       -2.82431       -2.34709
H          1.02200       -2.57225       -1.08674
H         -0.28827       -3.78051       -0.82870
N          2.55024       -1.77302        0.40605
C          3.90380       -1.33446        0.12255
C          2.49348       -2.87907        1.34733
H          2.01649       -0.99564        0.78494
H          4.45944       -2.14758       -0.35924
H          3.87373       -0.49255       -0.57528
H          4.46650       -1.02697        1.02184
H          2.93850       -3.77356        0.89454
H          3.02750       -2.67966        2.29294
H          1.44703       -3.09089        1.58172
H         -3.97995        0.13527       -0.86622
H         -5.27541        1.02662       -0.05631
H         -3.28545        2.48188       -0.78688
H         -3.65996        2.58476        0.95279
H         -1.56487        0.86378       -0.28806
H         -1.27505        2.18256        0.65043
H         -4.85757       -0.26491        1.78193
H         -3.68783       -1.07648        0.93041
C         -4.23887        0.68854        0.04246
C         -3.33300        1.92105        0.14865
N         -4.03153       -0.16105        1.20954
N         -1.97131        1.44440        0.48323
