29
2msa1a1ma_73.log	Energy: -929302.1007521
S          2.62023        0.05468        0.02031
O          3.93227        0.61338       -0.23087
O          2.41730       -1.38868       -0.00726
O          1.62204        0.73761       -1.01520
H          0.78095        0.19753       -1.11538
C          2.02459        0.66027        1.58666
H          2.67898        0.24827        2.35618
H          2.08859        1.74870        1.57673
H          0.99713        0.31216        1.71797
S         -1.32545       -1.17274       -0.11587
O         -1.07664       -0.45627        1.16455
O         -0.67765       -0.47266       -1.27027
O         -2.77899       -1.38426       -0.35690
H         -3.59113       -0.00441        0.36314
C         -0.56587       -2.77366       -0.00400
H          0.50551       -2.61924        0.13743
H         -1.01252       -3.29813        0.84070
H         -0.76298       -3.29923       -0.93845
N         -3.52701        0.91860        0.85164
H         -4.42744        1.27756        1.15232
H         -2.98658        1.58067        0.15510
H         -2.90162        0.73653        1.64035
N         -1.89575        2.25026       -0.83388
H         -1.52232        1.42918       -1.31914
C         -0.82896        2.83968       -0.00763
H          0.05503        3.12183       -0.58730
H         -1.21399        3.72102        0.51256
H         -0.52433        2.09626        0.73293
H         -2.20548        2.90756       -1.54316
