35
2msa1a1tma_79.log	Energy: -978615.5350336
S         -0.53283        0.91916       -0.26636
O          0.66476        1.79697       -0.08824
O         -0.70398       -0.04041        0.86014
O         -0.53049        0.21648       -1.57900
H          0.02124       -1.50516       -1.28184
C         -1.92428        2.01866       -0.24315
H         -1.89812        2.56093        0.70264
H         -1.82054        2.70514       -1.08367
H         -2.83515        1.41442       -0.32207
S          3.50686       -0.23339        0.25368
O          3.03457       -1.39252       -0.53376
O          3.21700       -0.26692        1.67575
O          3.03368        1.09216       -0.41661
H          2.02869        1.34056       -0.25430
C          5.25448       -0.09539       -0.02114
H          5.71030       -1.00072        0.38032
H          5.43149       -0.01029       -1.09266
H          5.61132        0.78685        0.50940
N          0.39660       -2.11078       -0.52341
H         -0.00909       -1.66538        0.32375
H          1.43292       -1.97826       -0.49907
H          0.13464       -3.08631       -0.62129
N         -4.36813       -0.23356        0.13903
C         -4.10376       -0.27282        1.56887
H         -3.02359       -0.27405        1.74116
H         -4.52950        0.61549        2.04558
H         -4.54339       -1.16657        2.05220
C         -5.78991       -0.15252       -0.14026
H         -6.21279        0.73457        0.34040
H         -5.95306       -0.06606       -1.21870
H         -6.34390       -1.03940        0.22427
C         -3.75912       -1.36479       -0.53748
H         -3.90775       -1.27591       -1.61765
H         -2.68387       -1.36410       -0.33916
H         -4.18245       -2.33261       -0.20296
