32
2msa2ma_41.log	Energy: -953968.0070976
S          2.12116       -0.89679       -0.06839
O          2.64264        0.31977        0.60848
O          1.90525       -0.76280       -1.51010
O          0.89045       -1.38225        0.66601
C          3.34208       -2.16947        0.18846
H          4.26691       -1.84225       -0.28716
H          3.48385       -2.30331        1.26062
H          2.97567       -3.08619       -0.27385
S         -2.30429       -0.61655       -0.01478
O         -2.36770        0.24539       -1.19256
O         -1.99852        0.04973        1.26022
O         -1.34653       -1.81877       -0.24062
H         -0.35070       -1.63088        0.08889
C         -3.85878       -1.45843        0.14607
H         -4.62270       -0.69447        0.29279
H         -4.03971       -2.01195       -0.77511
H         -3.80327       -2.12724        1.00416
N          0.34599        1.71228        1.27048
H         -0.36558        0.99281        1.46511
H          1.26219        1.23079        1.14271
C          0.39291        2.73988        2.32396
H          1.13754        3.49071        2.05836
H         -0.58577        3.21241        2.41476
H          0.66471        2.28208        3.27531
H          0.07721        2.12582        0.31833
N         -0.37622        2.54598       -1.27975
H         -1.07318        1.82739       -1.48210
C          0.77307        2.41459       -2.19000
H          0.50516        2.55830       -3.24346
H          1.53472        3.15180       -1.92129
H          1.20893        1.41946       -2.07451
H         -0.83472        3.44236       -1.41037
