32
2msa1a1dma_154.log	Energy: -953953.0111524
S         -2.21566       -0.81390       -0.27919
O         -3.42561       -1.49945       -0.69659
O         -1.10644       -1.74751        0.16889
O         -2.40293        0.20527        0.80500
H         -1.35758       -0.01048        1.90908
C         -1.56045        0.07842       -1.67778
H         -1.38503       -0.63584       -2.48324
H         -2.31131        0.81039       -1.97663
H         -0.62914        0.57091       -1.39143
S          2.03099       -0.78383       -0.17305
O          1.83780       -0.58753        1.27594
O          1.81031        0.38513       -1.01510
O          1.18789       -1.99840       -0.66285
H          0.17236       -1.90728       -0.36627
C          3.67271       -1.40040       -0.43133
H          3.79796       -2.30740        0.15874
H          3.79452       -1.60040       -1.49558
H          4.36011       -0.62013       -0.10354
N         -0.58303       -0.26882        2.61783
H         -0.50893        0.42798        3.35408
H          0.31942       -0.35057        2.10621
H         -0.81159       -1.17834        3.01279
N          0.78946        3.21391       -0.12919
C         -0.19964        3.82291       -0.99999
C          0.21753        2.73168        1.11367
H          1.24493        2.44107       -0.60327
H         -0.58677        4.73705       -0.53574
H          0.26760        4.10225       -1.94800
H         -1.06531        3.16988       -1.21565
H         -0.11487        3.58172        1.72203
H         -0.65394        2.06763        0.96551
H          0.98809        2.19386        1.67641
