22
2msa1a_05.log	Energy: -869149.1414724
S         -2.14313       -0.28419        0.08135
O         -3.41719       -0.57048        0.71955
O         -1.03319        0.02575        1.06751
O         -2.17743        0.82410       -0.93025
H         -1.19563        1.92516       -0.53041
C         -1.61586       -1.73595       -0.80822
H         -1.54972       -2.55911       -0.09575
H         -2.37413       -1.94737       -1.56258
H         -0.64835       -1.53872       -1.27347
S          2.05674       -0.13677       -0.08682
O          1.97072        1.33117        0.03793
O          1.65185       -0.69849       -1.36641
O          1.29354       -0.81258        1.09783
H          0.28316       -0.51743        1.10154
C          3.72014       -0.61723        0.29520
H          4.35841       -0.19395       -0.48079
H          3.97783       -0.21733        1.27514
H          3.77012       -1.70574        0.28539
N         -0.48511        2.62256       -0.10278
H         -0.75847        2.76527        0.86753
H         -0.47552        3.50756       -0.60174
H          0.45842        2.18243       -0.10909
