37
2msa1ma1eda_220.log	Energy: -1013360.1660784
S          2.64578       -0.68162       -0.13468
O          1.98213       -1.61789       -1.07358
O          3.84877       -1.18117        0.51223
O          1.61955       -0.17694        0.88640
C          3.06803        0.77016       -1.08461
H          3.78128        0.45947       -1.84841
H          2.15714        1.16482       -1.53840
H          3.52218        1.49949       -0.41286
S         -0.67346        2.03513        0.02466
O         -1.84216        1.47711        0.71016
O         -0.37468        1.43190       -1.28331
O          0.58359        2.00501        0.92613
H          1.09490        1.02173        0.89290
C         -0.91168        3.78123       -0.18274
H         -1.79693        3.91111       -0.80573
H         -1.06184        4.22414        0.80163
H         -0.02873        4.19472       -0.66887
N         -0.62954       -1.81579        1.93105
H         -0.46416       -2.77618        2.21578
C         -1.64604       -1.18585        2.78043
H         -1.38820       -1.18720        3.84669
H         -1.78706       -0.15391        2.45234
H         -2.59892       -1.70980        2.65756
H          0.26450       -1.32971        2.00562
H         -1.78661       -2.11074       -2.53464
H         -1.49660       -3.32843       -1.26623
H         -3.87339       -2.62291       -1.33962
H         -3.12410       -2.24867        0.21595
H         -4.50051       -0.45053       -1.05675
H         -3.08197        0.04860       -0.41293
H          0.23720       -1.64911       -1.11722
H         -0.87360       -0.43494       -1.10499
C         -1.77557       -2.28902       -1.45740
C         -3.13932       -1.97506       -0.85151
N         -0.74333       -1.42373       -0.84923
N         -3.49790       -0.58416       -1.09340
H         -0.76649       -1.52525        0.21036
