40
2msa1dma1eda_194.log	Energy: -1038021.5691586
S         -0.29416        2.24311        0.00625
O         -0.40902        1.13068        1.01793
O         -1.47667        2.33809       -0.85839
O          1.00307        2.13484       -0.71129
C         -0.21124        3.74530        0.96358
H         -1.14520        3.84409        1.51701
H          0.63856        3.67884        1.64297
H         -0.08709        4.57593        0.26830
S         -2.58346       -1.31207       -0.24566
O         -3.38725       -2.47426        0.06941
O         -1.31245       -1.52468       -0.95514
O         -2.30678       -0.54827        1.10324
H         -1.57477        0.16272        1.02041
C         -3.53586       -0.15274       -1.19655
H         -3.72751       -0.61591       -2.16516
H         -4.46924        0.02760       -0.66321
H         -2.95075        0.76522       -1.29931
N          2.09020       -1.42423        1.71602
C          0.89830       -1.95049        2.38076
C          2.55061       -0.16021        2.28978
H          2.84232       -2.10450        1.75087
H          0.08134       -1.23508        2.25899
H          0.59683       -2.89021        1.91148
H          1.05106       -2.12103        3.45663
H          1.76573        0.58949        2.15112
H          2.77657       -0.23921        3.36364
H          3.44583        0.16688        1.75496
H          2.14693       -2.15204       -2.02967
H          1.56153       -0.73217       -2.90992
H          3.97495       -0.66374       -2.97771
H          3.40981        0.63184       -1.91862
H          4.59972       -1.88947       -1.02312
H          5.07978       -0.36461       -0.69356
H          0.36115       -0.96091       -0.86991
H          1.74615       -0.99746        0.08896
C          2.10411       -1.05865       -2.01938
C          3.50195       -0.45566       -2.00689
N          1.34128       -0.63550       -0.83047
N          4.26582       -0.94484       -0.86043
H          1.30276        0.40261       -0.77441
