42
2msa2eda_358.log	Energy: -1072754.7544558
S          0.52312        2.35554       -0.46085
O          0.38563        3.76659       -0.12924
O         -0.68642        1.69310       -1.00153
O          1.04415        1.53744        0.72593
C          1.79350        2.17986       -1.70248
H          1.45609        2.71339       -2.59152
H          2.71178        2.62526       -1.31794
H          1.93059        1.11760       -1.91334
S          2.47353       -1.41169        0.22620
O          1.90193       -1.33324       -1.11494
O          1.62276       -1.99331        1.26914
O          3.00670       -0.00643        0.67766
H          2.23190        0.69109        0.69107
C          4.00171       -2.31141        0.17972
H          3.75632       -3.33682       -0.09807
H          4.64972       -1.85155       -0.56573
H          4.45186       -2.27590        1.17121
H         -2.57973       -0.91040        2.39607
H         -1.39343        0.03995        3.32066
H         -3.33982        1.40224        2.66926
H         -1.84456        2.03220        1.97154
H         -3.95002        1.70801        0.50802
H         -2.49378        1.31208       -0.10791
H         -0.20109       -1.21195        1.68773
H         -1.16334       -0.75402        0.40208
C         -1.86493       -0.08612        2.34241
C         -2.56455        1.20162        1.92390
N         -0.80883       -0.45105        1.36877
N         -3.17837        1.05810        0.60618
H         -0.17007        0.35305        1.19307
H         -3.00271       -3.31728       -1.53153
H         -4.36693       -2.28584       -1.92433
H         -2.36916       -1.46165       -3.05655
H         -2.96098       -0.27885       -1.88536
H         -0.61106       -1.98933       -1.49954
H         -0.69492       -0.35980       -1.57433
H         -2.90766       -2.48691        0.59170
H         -3.80714       -1.16123        0.26733
C         -3.41961       -2.31479       -1.37282
C         -2.48948       -1.26208       -1.98151
N         -3.69709       -2.15290        0.04985
N         -1.20375       -1.19282       -1.28202
