43
2msa1eda1tma_91.log	Energy: -1062681.5270093
S         -0.58200       -2.28532        0.25446
O         -2.02301       -1.98538        0.26875
O          0.07083       -2.37703        1.56293
O          0.12198       -1.27462       -0.65047
C         -0.36210       -3.85015       -0.57444
H         -0.86038       -4.61298        0.02447
H         -0.81132       -3.78235       -1.56522
H          0.70677       -4.05475       -0.64267
S          2.89868        0.64392       -0.64168
O          3.43628        0.88093        0.69402
O          1.75360        1.45514       -1.05545
O          2.57650       -0.87690       -0.84562
H          1.56183       -1.08497       -0.72730
C          4.21517        0.84576       -1.81811
H          4.56912        1.87324       -1.72923
H          5.00848        0.14268       -1.56509
H          3.81923        0.65303       -2.81448
H         -1.53445        1.68064        2.34104
H         -1.43353       -0.06991        2.00906
H          0.33722        0.64388        3.63940
H          1.03139        0.02308        2.15082
H          1.13803        2.74448        3.09735
H          2.11075        1.96131        2.01421
H         -1.66460        1.41090        0.00475
H         -0.05310        1.94257        0.38158
C         -0.91512        0.88594        1.91458
C          0.46184        0.85758        2.57170
N         -0.74065        1.18400        0.47190
N          1.15050        2.11772        2.30342
H         -0.35133        0.35983       -0.02486
N         -3.23908        1.36973       -0.76733
C         -4.11802        0.64859        0.15420
H         -3.65675       -0.30659        0.41767
H         -4.26279        1.24064        1.06321
H         -5.10609        0.45570       -0.29620
C         -3.79462        2.66796       -1.12811
H         -3.95193        3.26594       -0.22575
H         -3.09851        3.20197       -1.78119
H         -4.76021        2.57065       -1.65279
C         -2.96062        0.55776       -1.95332
H         -2.25532        1.08597       -2.60166
H         -2.51401       -0.39039       -1.64306
H         -3.87921        0.34989       -2.52662
