26
2msa2a_84.log	Energy: -904632.2476106
S          1.53525       -0.65184        0.00466
O          2.31965       -0.90360       -1.24035
O          0.92243        0.70303        0.01874
O          2.36231       -0.90984        1.22071
H          4.09513       -0.48935        0.76565
C          0.19924       -1.82546        0.02618
H         -0.41688       -1.66143       -0.85875
H          0.63230       -2.82567        0.01701
H         -0.38547       -1.66372        0.93253
S         -3.02845        0.07880        0.02017
O         -2.84468       -0.63304       -1.23660
O         -2.82692       -0.60280        1.28093
O         -4.55351        0.65878       -0.00036
H         -5.01405        0.23509       -0.73863
C         -2.10942        1.59172        0.01740
H         -1.04895        1.31424        0.05644
H         -2.34099        2.13123       -0.90047
H         -2.39845        2.16146        0.90071
N          4.59636       -0.06545       -0.04166
H          4.34677        0.97238       -0.03048
H          4.07851       -0.47876       -0.84276
H          5.59288       -0.25380       -0.05401
N          3.38113        2.43147        0.00156
H          2.44326        2.00956        0.00855
H          3.43416        3.04253       -0.80745
H          3.45741        3.01498        0.82893
