32
2msa1a1dma_121.log	Energy: -953955.2182162
S          0.81783        1.17836        0.16387
O         -0.43654        1.93244       -0.12364
O          1.07600        0.10444       -0.83920
O          0.85942        0.64231        1.55125
H          0.48689       -1.16437        1.47909
C          2.13134        2.36284        0.00636
H          2.06543        2.80211       -0.98917
H          1.99210        3.12276        0.77534
H          3.07661        1.82914        0.13325
S         -3.07394       -0.40324       -0.25372
O         -2.49572       -1.36351        0.70891
O         -2.74804       -0.62296       -1.65090
O         -2.76794        1.05854        0.20362
H         -1.78877        1.37054        0.04979
C         -4.83226       -0.41457       -0.01604
H         -5.18005       -1.41444       -0.27689
H         -5.04246       -0.18876        1.02874
H         -5.26698        0.33261       -0.67931
N          0.19018       -1.88563        0.79276
H          0.54961       -2.81056        1.00550
H          0.56593       -1.50047       -0.09657
H         -0.85198       -1.85802        0.74435
N          4.06283       -0.47889       -0.36698
C          3.83060       -1.19375        0.87332
C          5.07475       -1.10137       -1.20074
H          3.18601       -0.39103       -0.87382
H          4.74088       -1.18237        1.48323
H          3.04120       -0.69384        1.44249
H          3.55266       -2.25722        0.72516
H          6.04890       -1.04439       -0.70227
H          4.87330       -2.16616       -1.41977
H          5.15330       -0.56490       -2.14982
