30
2msa1eda_19.log	Energy: -953207.6545392
S          1.28115        1.57420       -0.04700
O          0.77754        0.72913        1.08984
O          0.21534        2.34313       -0.69673
O          2.10511        0.74788       -0.98000
C          2.41876        2.73422        0.68460
H          1.86024        3.35150        1.38837
H          3.20471        2.17756        1.19482
H          2.83386        3.34466       -0.11755
S         -2.46036       -0.23446        0.00784
O         -3.66672       -0.94594        0.37205
O         -1.50432       -0.88529       -0.89776
O         -1.72359        0.15917        1.34859
H         -0.76172        0.43716        1.19717
C         -2.87256        1.33890       -0.70701
H         -3.38583        1.13979       -1.64850
H         -3.52960        1.86052       -0.01116
H         -1.94014        1.88516       -0.86961
H          1.61958       -3.66390       -0.93943
H          2.96626       -2.57335       -1.37408
H          2.89708       -3.09149        1.09846
H          2.73009       -1.36763        0.75235
H          0.81371       -3.00113        2.04321
H          0.73922       -1.37798        1.71357
H          0.79507       -1.88928       -2.32964
H          0.18330       -1.68781       -0.80659
C          2.03271       -2.66027       -0.81292
C          2.22808       -2.33738        0.67031
N          1.05683       -1.69143       -1.36669
N          0.93321       -2.29576        1.33057
H          1.44228       -0.70695       -1.30989
