25
2msa1ma_03.log	Energy: -893812.8365623
S          1.87137       -0.67774       -0.04514
O          2.24210        0.40703       -0.99607
O          0.86309       -1.61983       -0.60971
O          1.45722       -0.13613        1.27363
C          3.33407       -1.65890        0.20752
H          3.08910       -2.45345        0.91219
H          3.63501       -2.07327       -0.75453
H          4.11061       -1.00859        0.61012
S         -2.29844       -0.28230       -0.06040
O         -3.72093       -0.38643       -0.29217
O         -1.73362        1.07587        0.04020
O         -1.56546       -1.07486       -1.20285
H         -0.57866       -1.23133       -1.00746
C         -1.84336       -1.15378        1.42301
H         -2.37909       -0.67727        2.24501
H         -2.15361       -2.19247        1.31008
H         -0.76255       -1.06818        1.55990
N          0.69027        2.30824        0.16373
H          1.03100        2.01835        1.08457
H          1.32691        1.80160       -0.49406
C          0.63300        3.76864       -0.03542
H          0.26477        3.96960       -1.04079
H         -0.04870        4.20697        0.69314
H          1.62914        4.19461        0.08279
H         -0.24430        1.85530        0.06667
