40
2msa1dma1eda_350.log	Energy: -1038017.3046733
S          0.03743       -1.35487        0.74665
O          0.54384       -0.50842        1.83318
O          0.15384       -0.70134       -0.60347
O         -1.37408       -1.81280        0.94088
H         -2.41686       -1.09601       -0.08564
C          1.04018       -2.82317        0.68696
H          2.06616       -2.50877        0.48624
H          0.95842       -3.31878        1.65458
H          0.66572       -3.46457       -0.11100
S          3.52258        0.46565       -0.46049
O          4.58762        1.16584       -1.14965
O          3.59786       -0.97941       -0.27611
O          2.17123        0.81493       -1.22781
H          1.45003        0.15430       -0.99387
C          3.26956        1.21433        1.13521
H          4.16874        1.02135        1.72189
H          3.13129        2.28544        0.98757
H          2.39297        0.75176        1.59543
N         -3.17781       -0.76422       -0.73960
C         -4.26712       -1.75736       -0.69588
C         -2.60100       -0.55363       -2.08505
H         -3.52622        0.16822       -0.38863
H         -3.89345       -2.71580       -1.05938
H         -4.60048       -1.87007        0.33599
H         -5.09689       -1.42200       -1.32134
H         -2.11742       -1.47200       -2.41876
H         -3.39740       -0.27076       -2.77737
H         -1.85582        0.23791       -2.01391
H         -3.21567        3.55221        1.05032
H         -3.71379        2.12447        1.97145
H         -1.22224        2.40327        1.89109
H         -1.76813        0.86624        1.26242
H         -0.71714        3.07575       -0.30663
H         -0.42079        1.46994       -0.40988
H         -4.87882        2.23892       -0.13309
H         -3.44483        2.25671       -0.93673
C         -3.20827        2.45228        1.05797
C         -1.76906        1.94034        1.05907
N         -3.92131        1.90320       -0.10776
N         -1.14881        2.15996       -0.24766
