34
2msa1a1eda_83.log	Energy: -988709.9985364
S          2.33285       -0.90091       -0.07348
O          3.74317       -1.24884        0.03245
O          2.10728        0.55318       -0.41860
O          1.50330       -1.28500        1.10985
H          0.70115       -0.26478        2.10150
C          1.62863       -1.81087       -1.44056
H          2.18494       -1.55081       -2.34240
H          1.74595       -2.87359       -1.22536
H          0.57107       -1.54907       -1.53205
S         -2.38048       -0.79370       -0.11431
O         -3.78115       -0.97881       -0.47038
O         -2.16366        0.15975        1.02283
O         -1.50243       -0.42176       -1.27849
H         -0.69500        0.89206       -1.53577
C         -1.73166       -2.36202        0.44568
H         -2.31487       -2.67461        1.31290
H         -1.84923       -3.08306       -0.36415
H         -0.67658       -2.23521        0.70169
N          0.02043        0.39350        2.56570
H         -0.90217        0.24296        2.08261
H          0.33216        1.36693        2.35608
H         -0.04233        0.22253        3.56407
H          0.53378        3.65157       -1.48628
H         -1.19938        3.29018       -1.66124
H         -0.89540        3.83377        0.64427
H         -1.14600        2.09993        0.54818
H          1.42662        2.02159        0.65175
H          1.30594        3.56207        1.21786
H          0.17487        1.65141       -2.76458
H          0.93244        1.20832       -1.32702
C         -0.26462        2.96088       -1.20013
C         -0.43106        2.89915        0.31819
N          0.05799        1.61848       -1.75418
N          0.79504        2.69525        1.09450
