43
2msa1eda1tma_82.log	Energy: -1062681.5674397
S         -0.40373        2.26520       -0.41197
O         -0.46835        1.90526       -1.82921
O          0.86404        1.76416        0.25731
O         -1.57543        1.85551        0.39862
H         -1.10484        0.26187        1.20244
C         -0.30306        4.04142       -0.29383
H          0.57647        4.36948       -0.84816
H         -1.21083        4.45636       -0.73261
H         -0.22377        4.31144        0.75913
S          2.58008       -1.00863       -0.59321
O          1.18027       -1.46596       -0.60726
O          3.35071       -1.32319        0.60019
O          2.64664        0.51196       -0.93732
H          1.88185        1.06231       -0.48013
C          3.39666       -1.68502       -2.01694
H          3.44655       -2.76478       -1.87477
H          2.81449       -1.42957       -2.90167
H          4.39754       -1.25665       -2.06753
H          1.52347       -1.06886        2.40835
H          0.82766       -1.21529        4.02352
H         -0.51540       -2.43313        2.33122
H         -1.45361       -1.14051        3.13015
H         -0.11235       -0.88380        0.50584
H         -1.75518       -1.16596        0.64766
H          1.19206        1.02953        3.88428
H          0.75282        1.16359        2.31615
C          0.67451       -0.76413        3.03816
C         -0.61122       -1.35275        2.46778
N          0.54355        0.68107        3.18916
N         -0.91315       -0.75466        1.14825
N         -2.99506       -1.46396       -0.55578
C         -3.59185       -2.79345       -0.53994
H         -2.81182       -3.55073       -0.66109
H         -4.09492       -2.96221        0.41676
H         -4.33108       -2.92387       -1.34859
C         -4.00109       -0.42210       -0.34988
H         -4.51788       -0.59431        0.59921
H         -3.50748        0.55240       -0.30788
H         -4.75021       -0.41459       -1.15883
C         -2.25081       -1.22834       -1.79596
H         -1.79691       -0.23332       -1.77793
H         -1.45111       -1.96867       -1.88962
H         -2.90641       -1.29861       -2.67949
