37
2msa1ma1eda_519.log	Energy: -1013349.2967861
S          1.71218       -1.52132       -0.62871
O          2.00599       -2.11762       -1.92530
O          0.61963       -0.47369       -0.67290
O          2.88927       -0.89565        0.05823
H          2.67267        0.58839        0.41511
C          1.11455       -2.79117        0.46441
H          0.25335       -3.25861       -0.01619
H          1.91663       -3.51923        0.59218
H          0.82169       -2.33563        1.41679
S         -2.63854        0.06846       -0.29654
O         -2.20917        1.46688       -0.22439
O         -2.74946       -0.65981        0.96270
O         -1.76113       -0.71844       -1.32890
H         -0.74609       -0.67203       -1.08973
C         -4.20256       -0.00271       -1.13635
H         -4.10027        0.49466       -2.10015
H         -4.47677       -1.04998       -1.25985
H         -4.92416        0.51540       -0.50425
N         -0.41308       -1.11894        2.94123
H         -1.30191       -1.27240        2.47121
C          0.02769        0.24520        2.66636
H         -0.66379        1.03094        3.00361
H          1.00191        0.41495        3.14125
H          0.15049        0.35273        1.58489
H         -0.56678       -1.25483        3.93444
H          3.03958        3.43677       -0.38452
H          3.11490        1.97060       -1.39506
H          0.98435        3.40585       -1.70978
H          0.70449        1.69799       -1.32427
H          0.22445        3.94597        0.43434
H         -0.56625        2.50646        0.28930
H          3.46890        1.85095        1.20429
H          1.78735        1.88475        1.16446
C          2.57064        2.47106       -0.59246
C          1.08130        2.64282       -0.92918
N          2.65055        1.64121        0.63914
N          0.35059        2.95023        0.29730
