35
2msa1ma1dma_125.log	Energy: -978623.3319454
S         -2.06946       -1.00149       -0.00330
O         -1.59820       -1.77540        1.13661
O         -1.19628       -1.23911       -1.26468
O         -2.22802        0.44743        0.22490
C         -3.63605       -1.62643       -0.55933
H         -4.35722       -1.44944        0.23895
H         -3.91988       -1.09103       -1.46498
H         -3.52246       -2.69270       -0.75266
S          2.13691       -0.88015       -0.24097
O          2.36519       -1.24062        1.15905
O          1.74841        0.55353       -0.41713
O          1.17015       -1.78365       -0.95682
H         -0.16073       -1.46384       -1.07637
C          3.66531       -1.09894       -1.12891
H          4.41278       -0.44803       -0.67522
H          3.95638       -2.14522       -1.03507
H          3.49963       -0.83540       -2.17328
N         -0.45845        2.47685       -1.28035
H          0.28474        1.79581       -1.42149
C         -0.47619        3.45601       -2.36261
H         -0.63397        3.02647       -3.36310
H         -1.26778        4.18986       -2.18206
H          0.47420        3.99798       -2.37761
H         -1.32508        1.94754       -1.25229
N          0.09304        1.44398        1.57985
C          0.28876        2.88196        1.86017
C          0.20532        0.55701        2.76198
H         -0.82330        1.29377        1.12528
H          1.29345        3.02935        2.25919
H          0.16007        3.41067        0.91457
H         -0.45181        3.20957        2.59200
H          1.21698        0.62854        3.16103
H         -0.52667        0.87025        3.50822
H          0.01124       -0.46912        2.45062
H          0.78519        1.14053        0.85286
