35
2msa1ma1dma_291.log	Energy: -978614.1190020
S         -2.52059        0.74310       -0.22543
O         -3.85759        1.25597        0.02677
O         -2.01509       -0.14322        0.90944
O         -1.47843        1.77557       -0.50493
H         -0.31349        1.70616        0.63819
C         -2.57635       -0.30583       -1.66509
H         -3.31022       -1.09133       -1.48095
H         -2.88992        0.31684       -2.50354
H         -1.58409       -0.72469       -1.84120
S          0.62958       -2.00060        0.13962
O          1.39499       -1.03626        0.96018
O          0.50771       -1.68015       -1.27421
O         -0.76351       -2.24811        0.78934
H         -1.35094       -1.35337        0.80173
C          1.37929       -3.59428        0.33917
H          2.37589       -3.52736       -0.09830
H          1.43124       -3.82316        1.40289
H          0.77025       -4.32240       -0.19581
N          0.23607        1.44925        1.50782
H         -0.48551        1.22317        2.19409
C          1.16725        2.49967        1.96273
H          1.65202        2.18703        2.88767
H          1.92025        2.65198        1.19003
H          0.61757        3.42667        2.12334
H          0.72137        0.55603        1.29953
N          3.08728        0.89662       -0.92837
C          1.93660        1.47677       -1.59072
C          4.12379        1.84769       -0.59602
H          2.81098        0.32523       -0.13863
H          2.22360        1.83481       -2.58593
H          1.16203        0.71721       -1.71579
H          1.49500        2.34128       -1.05717
H          4.55226        2.26105       -1.51628
H          3.77745        2.70998        0.00899
H          4.92899        1.34932       -0.04921
