43
2msa1eda1tma_125.log	Energy: -1062681.1420573
S          0.11384        2.26048        0.39611
O          0.31220        1.87254        1.80094
O         -1.33326        2.33152       -0.00038
O          0.90547        1.43031       -0.55127
C          0.69579        3.93429        0.19884
H          0.55034        4.22773       -0.84070
H          0.11787        4.57330        0.86643
H          1.75322        3.95639        0.46387
S         -2.85307       -0.70047       -0.64980
O         -3.45985       -1.88667       -0.06035
O         -1.52486       -0.83163       -1.24312
O         -2.84785        0.40901        0.45497
H         -2.19308        1.20059        0.25837
C         -3.95326       -0.04763       -1.88633
H         -4.02615       -0.78841       -2.68314
H         -4.92474        0.12085       -1.42230
H         -3.52730        0.88369       -2.26111
H          1.66407       -2.04776        1.96098
H          1.19311       -0.31865        2.01381
H         -0.48750       -1.81598        3.16565
H         -1.17170       -0.90274        1.83034
H         -0.73787       -3.76157        1.91976
H         -1.84716       -2.88965        1.06266
H          1.95224       -1.34591       -0.21032
H          0.35402       -2.01962       -0.19281
C          0.92790       -1.30719        1.63349
C         -0.47844       -1.71223        2.07423
N          0.96573       -1.26713        0.15060
N         -0.87807       -2.92628        1.36573
H          0.61903       -0.35854       -0.20894
N          3.62151       -0.92859       -0.70547
C          3.98137        0.07497        0.29571
H          3.18833        0.82591        0.35251
H          4.08596       -0.40289        1.27454
H          4.93268        0.57627        0.05031
C          4.61098       -1.99640       -0.77080
H          4.70902       -2.47247        0.20911
H          4.29159       -2.75286       -1.49302
H          5.60308       -1.62134       -1.07545
C          3.42375       -0.30284       -2.01305
H          3.09996       -1.05744       -2.73577
H          2.64945        0.46478       -1.93420
H          4.35183        0.16173       -2.38659
