40
2msa1dma1eda_325.log	Energy: -1038018.4553311
S         -2.09453       -0.50167       -0.88310
O         -2.10290       -1.44154        0.27485
O         -1.07343       -0.80347       -1.89747
O         -2.02659        0.91614       -0.39410
H         -0.86199        1.92986       -0.74263
C         -3.68618       -0.66654       -1.66686
H         -3.78430       -1.69430       -2.01679
H         -4.45747       -0.43133       -0.93373
H         -3.72053        0.03090       -2.50398
S          1.26395        2.06990       -0.34318
O          2.16459        3.19756       -0.26523
O         -0.12513        2.60736       -0.87490
O          1.02110        1.30143        0.89424
H         -0.24483        0.53877        1.67524
C          1.79760        0.92561       -1.58545
H          2.06160        1.50331       -2.47150
H          2.65429        0.37909       -1.17593
H          0.97493        0.23693       -1.79598
N         -0.90957       -0.00660        2.26485
C         -1.93404        0.91660        2.79870
C         -0.14198       -0.73355        3.29439
H         -1.36877       -0.67208        1.59654
H         -1.44690        1.67797        3.40977
H         -2.43643        1.37768        1.94866
H         -2.64740        0.35143        3.40069
H          0.36555       -0.01448        3.93896
H         -0.81936       -1.35269        3.88458
H          0.59744       -1.36202        2.79865
H          3.07226       -3.37535        0.73962
H          2.91467       -1.84211        1.61280
H          0.70464       -2.73419        0.93366
H          1.04679       -1.16361        0.19330
H          1.07798       -3.74096       -1.16235
H          0.33512       -2.33473       -1.58377
H          4.62297       -1.73134       -0.13017
H          3.44841       -1.98777       -1.25583
C          2.80000       -2.31096        0.62760
C          1.33874       -2.21844        0.19342
N          3.63842       -1.60176       -0.33372
N          1.17043       -2.73116       -1.16102
