37
2msa1ma1eda_544.log	Energy: -1013349.3878502
S         -0.36674       -2.02411       -0.02096
O          0.76741       -2.93774       -0.06982
O         -0.66870       -1.22339       -1.20408
O         -0.11036       -1.06888        1.21301
H         -0.52902       -0.12777        1.09776
C         -1.82467       -2.91426        0.45800
H         -2.06453       -3.59931       -0.35645
H         -1.59560       -3.46502        1.37049
H         -2.62359       -2.17790        0.61873
S         -0.42126        2.24228        0.10240
O         -0.57160        3.61683        0.56163
O         -1.05935        1.23689        1.02607
O          0.99319        1.83609       -0.19340
H          2.09016        1.24607        0.69056
C         -1.26613        2.06069       -1.45487
H         -2.31681        2.30533       -1.29356
H         -0.81775        2.75587       -2.16508
H         -1.14898        1.02509       -1.77731
N         -3.71154       -0.23179        0.55153
H         -4.51383        0.03468        1.11103
C         -4.03486       -0.20913       -0.87265
H         -4.38287        0.76443       -1.25133
H         -3.14522       -0.49782       -1.43988
H         -4.81520       -0.94719       -1.08374
H         -2.96107        0.42310        0.76466
H          3.95552       -1.04252        1.27836
H          2.16977       -1.11697        1.20700
H          3.20132       -1.85426       -0.96496
H          2.19632       -0.42080       -1.15044
H          5.10445       -0.50652       -1.27730
H          4.04964        0.40259       -2.13463
H          3.08639        1.04316        2.06869
H          3.76381        1.24941        0.54272
C          3.05901       -0.64099        0.79714
C          3.13048       -0.79099       -0.71846
N          2.99837        0.82055        1.08055
N          4.24423        0.02627       -1.21500
