35
2msa1a1tma_65.log	Energy: -978616.9317191
S          0.66595        1.65086       -0.42303
O          0.19827        0.69164       -1.47573
O          0.54956        1.06652        0.94169
O         -0.01767        2.96704       -0.51545
H         -1.40982        2.90251        0.69938
C          2.38958        1.89330       -0.75670
H          2.86540        0.91114       -0.64718
H          2.48517        2.28296       -1.77039
H          2.77263        2.60856       -0.02818
S         -2.48639       -0.99829        0.01447
O         -3.09935        0.34671       -0.03427
O         -1.98458       -1.41721        1.31287
O         -1.42068       -1.13987       -1.10822
H         -0.74238       -0.33381       -1.20326
C         -3.69250       -2.16445       -0.56546
H         -4.49636       -2.18346        0.17075
H         -4.05754       -1.83241       -1.53661
H         -3.21190       -3.13991       -0.63641
N         -1.81986        2.28216        1.42670
H         -0.99537        1.73050        1.73383
H         -2.46411        1.60953        0.95548
H         -2.26927        2.78815        2.18271
N          3.12164       -1.21384        0.14819
C          1.88303       -1.96589        0.01058
H          1.05935       -1.40582        0.45742
H          1.65940       -2.12020       -1.04876
H          1.94329       -2.95493        0.50479
C          4.24081       -1.93289       -0.43010
H          4.04509       -2.13404       -1.48776
H          5.15171       -1.32963       -0.35917
H          4.42893       -2.90060        0.07517
C          3.36913       -0.86825        1.53765
H          4.28258       -0.26843        1.61305
H          2.53089       -0.27677        1.91561
H          3.49196       -1.76219        2.17933
