29
2msa1a1ma_31.log	Energy: -929310.7268236
S         -2.30842       -0.37818       -0.24822
O         -3.76120       -0.41324       -0.33222
O         -1.65320       -1.72325       -0.11420
O         -1.78418        0.52924        0.83816
H         -0.87106       -0.87428        2.63554
C         -1.68231        0.28869       -1.78325
H         -1.98949       -0.38641       -2.58263
H         -2.13582        1.26989       -1.93363
H         -0.59211        0.35556       -1.73570
S          2.32567       -0.32068       -0.25342
O          3.78046       -0.35166       -0.29390
O          1.69144        0.72990       -1.11591
O          1.76280       -0.20658        1.14486
H          0.86359        2.09185        1.44143
C          1.71971       -1.87552       -0.89136
H          2.05803       -1.96104       -1.92454
H          2.15298       -2.67879       -0.29313
H          0.62778       -1.88831       -0.84240
N         -0.29801       -1.55467        2.13842
H         -0.09082       -2.35746        2.72436
H          0.58305       -1.07158        1.79694
H         -0.85715       -1.80724        1.26687
N          0.29470        2.20982        0.60354
H          0.86571        1.76110       -0.16602
C         -0.06161        3.61454        0.33218
H         -0.64913        3.65253       -0.58488
H         -0.65502        4.01195        1.15563
H          0.84556        4.20516        0.20471
H         -0.55262        1.59134        0.71024
