34
2msa1a1eda_191.log	Energy: -988703.1376051
S          1.69538       -1.54518       -0.28293
O          3.00830       -2.12908       -0.52210
O          1.15885       -0.70584       -1.39551
O          1.63004       -0.76768        1.01496
H          1.09263        1.02143       -1.20317
C          0.51903       -2.87680       -0.09169
H          0.51678       -3.44652       -1.02171
H          0.85476       -3.50870        0.73165
H         -0.47250       -2.46124        0.10506
S         -2.62349        0.07035       -0.04365
O         -3.99807        0.55072       -0.03691
O         -2.37870       -1.16065        0.77527
O         -1.61155        1.12627        0.34320
H         -0.73963        0.63174        2.42142
C         -2.20680       -0.39316       -1.71847
H         -2.85142       -1.22656       -1.99985
H         -2.41101        0.46107       -2.36695
H         -1.15355       -0.68537       -1.75764
N         -0.52045       -0.36249        2.48787
H          0.37344       -0.54913        1.93782
H         -1.30877       -0.83587        1.96292
H         -0.44756       -0.66673        3.45350
H          1.06033        2.41604        1.40283
H          2.15989        3.75133        1.08276
H          0.31137        3.84176       -0.51068
H          1.83433        3.45170       -1.36246
H         -0.36228        1.57446       -0.59750
H          0.14378        2.00382       -2.13252
H          3.76005        2.17864        0.93348
H          2.69153        0.92758        0.76477
C          1.80365        2.79549        0.68544
C          1.10129        3.09590       -0.63587
N          2.90928        1.87968        0.47846
N          0.47169        1.86557       -1.17863
