35
2msa1ma1dma_113.log	Energy: -978627.3647543
S          0.98681       -1.62792        0.14991
O          0.14198       -1.26552        1.34590
O          2.37635       -1.91263        0.53861
O          0.85332       -0.59743       -0.91135
C          0.27215       -3.11727       -0.51299
H          0.30117       -3.88356        0.26170
H         -0.75281       -2.88588       -0.80875
H          0.86391       -3.41749       -1.37805
S         -2.56904        0.16409       -0.27047
O         -2.51144       -0.95256       -1.20092
O         -1.85722        1.39510       -0.62140
O         -2.15111       -0.29248        1.17556
H         -1.20226       -0.72764        1.20076
C         -4.26994        0.57567        0.04673
H         -4.78661       -0.32655        0.37223
H         -4.30557        1.34890        0.81339
H         -4.68625        0.94268       -0.89197
N          3.57307        0.84517        0.32988
H          4.33915        1.20691        0.88876
C          3.96423        0.73669       -1.08315
H          4.85626        0.11948       -1.23985
H          3.13344        0.28299       -1.62923
H          4.15440        1.73334       -1.49353
H          3.35568       -0.09438        0.67388
N          0.99795        1.89608        0.19917
C          0.86892        3.07835       -0.67049
C          0.39217        2.04977        1.53750
H          0.58759        1.06919       -0.27765
H          1.35126        3.93409       -0.19347
H          1.35413        2.86508       -1.62359
H         -0.18923        3.27999       -0.83830
H          0.90335        2.85452        2.07013
H         -0.66769        2.27528        1.42090
H          0.50642        1.10471        2.07024
H          2.02201        1.61564        0.31135
