40
2msa1dma1eda_457.log	Energy: -1038011.4645619
S         -2.22119       -1.42993       -0.33296
O         -3.03084       -0.73751       -1.33849
O         -2.49190       -0.99030        1.07356
O         -0.74659       -1.42519       -0.60798
H          0.10231       -0.37327       -1.17359
C         -2.67049       -3.15491       -0.37048
H         -2.47766       -3.53018       -1.37567
H         -2.06693       -3.68686        0.36468
H         -3.73134       -3.22910       -0.13051
S          1.53964        1.27381       -0.75166
O          1.19002        2.62120       -1.18027
O          0.82187        0.21182       -1.64206
O          1.33727        0.96352        0.67862
H         -0.19109        1.13111        1.49151
C          3.23935        0.95760       -1.13396
H          3.36322        1.07143       -2.21115
H          3.82751        1.70596       -0.60084
H          3.48383       -0.05805       -0.79578
N          3.63454       -1.90526        0.42837
C          2.33179       -2.54888        0.30402
C          3.83545       -1.30563        1.73985
H          4.36850       -2.58044        0.24411
H          1.54184       -1.80282        0.42201
H          2.22408       -2.98436       -0.69237
H          2.16467       -3.33957        1.05604
H          3.10921       -0.49663        1.87064
H          3.70844       -2.01924        2.57250
H          4.83938       -0.87534        1.80289
H         -2.98120        1.93445        1.99022
H         -1.70312        2.97175        2.65740
H         -2.49273        3.67511        0.35956
H         -0.75086        3.39338        0.47638
H         -2.60408        1.46269       -0.75114
H         -1.26538        2.19928       -1.38254
H         -0.89229        0.84200        2.98483
H         -1.59526        0.20844        1.59401
C         -1.94585        2.26144        1.86360
C         -1.72588        2.89545        0.49014
N         -1.09117        1.04937        2.00934
N         -1.70068        1.87009       -0.52989
