34
2msa1a1eda_323.log	Energy: -988689.5511842
S          0.96691       -1.49697       -0.40180
O          0.45693       -0.37830       -1.25343
O          0.10115       -2.70159       -0.46015
O          1.19036       -1.06063        1.01090
H         -0.22598       -1.70500        2.03921
C          2.54797       -1.90438       -1.08996
H          2.40064       -2.13783       -2.14443
H          3.19125       -1.02930       -0.94338
H          2.93253       -2.77011       -0.54985
S         -2.71965        0.57475       -0.17786
O         -2.54870        0.13986        1.22422
O         -3.25650       -0.41396       -1.09478
O         -1.38820        1.20316       -0.70073
H         -0.63956        0.50309       -0.91397
C         -3.74148        2.02541       -0.15854
H         -4.71517        1.71932        0.22493
H         -3.28263        2.76642        0.49511
H         -3.82583        2.39501       -1.18009
N         -1.15924       -2.13074        1.88227
H         -1.00679       -2.65981        0.99892
H         -1.82285       -1.34802        1.69331
H         -1.46552       -2.72016        2.64956
H          3.96864        2.79036        0.96961
H          4.29553        2.44176       -0.74304
H          2.09501        3.42581       -0.45544
H          1.95331        1.76958       -1.07933
H          0.44781        2.43845        0.80936
H          1.27261        1.07354        1.07492
H          4.94063        0.59155        0.62761
H          3.42157        0.40919        1.18584
C          3.69502        2.14130        0.12346
C          2.22378        2.36911       -0.19624
N          3.96410        0.72323        0.38460
N          1.38321        2.07960        0.96675
