38
2msa2dma_06.log	Energy: -1003304.0505703
S         -2.80920       -0.01768       -0.16116
O         -2.99892       -1.32946       -0.79590
O         -2.92091        1.16600       -1.02541
O         -1.49543        0.01071        0.60821
C         -4.06755        0.14139        1.09888
H         -5.03790        0.10997        0.60247
H         -3.96941       -0.68810        1.79943
H         -3.93084        1.09544        1.60839
S          2.78418        0.00165       -0.14563
O          2.45529       -1.24227       -0.89816
O          2.19685        0.00442        1.21335
O          2.44891        1.23822       -0.90735
C          4.55862        0.00747        0.02723
H          4.99810        0.00552       -0.97021
H          4.84389        0.90734        0.57241
H          4.84929       -0.88701        0.57838
N          0.06263        2.19700        0.01509
C         -0.56581        3.16620       -0.90611
C          0.40010        2.74168        1.34666
H         -0.56836        1.37412        0.15913
H          0.14087        3.97440       -1.10323
H         -0.82925        2.65121       -1.82830
H         -1.47907        3.55396       -0.45487
H          1.06799        3.59639        1.22603
H         -0.51718        3.05020        1.85077
H          0.90436        1.95466        1.90830
H          0.94570        1.82693       -0.41072
N          0.06626       -2.19552        0.02523
C         -0.54151       -3.16505       -0.90990
C          0.37108       -2.74022        1.36440
H          0.95816       -1.82722       -0.38342
H         -1.48415       -3.52281       -0.49694
H         -0.74713       -2.65974       -1.85211
H          0.15763       -3.98894       -1.06443
H         -0.55776       -3.05364        1.84340
H          1.04652       -3.59112        1.26013
H          0.85670       -1.95189        1.94020
H         -0.56604       -1.37349        0.15677
