40
2msa1dma1eda_424.log	Energy: -1038016.0243344
S          1.92060        0.73180        0.85947
O          1.38855        0.50074       -0.51030
O          2.10335        2.14488        1.20829
O          3.16373       -0.10661        1.05315
H          3.12990       -1.24029        0.08823
C          0.74172        0.04625        2.01050
H         -0.23184        0.52041        1.88453
H          0.62692       -1.01667        1.79904
H          1.13395        0.20757        3.01502
S         -2.55727       -1.06218        0.24249
O         -3.57622       -0.63802       -0.73733
O         -2.48014       -0.22666        1.45438
O         -1.20635       -1.21118       -0.41383
H         -0.98764        0.25166       -1.20057
C         -2.99695       -2.71260        0.77298
H         -3.97655       -2.65687        1.24855
H         -3.03255       -3.36179       -0.10221
H         -2.24856       -3.05869        1.48674
N          3.04407       -2.05584       -0.63992
C          3.25230       -1.48811       -1.99207
C          1.72003       -2.70597       -0.46308
H          3.78560       -2.72149       -0.42843
H          2.49939       -0.71294       -2.13188
H          4.24399       -1.03696       -2.03425
H          3.15915       -2.27419       -2.74422
H          0.93481       -1.95538       -0.58529
H          1.60197       -3.50453       -1.19849
H          1.66914       -3.11952        0.54502
H         -2.19858        2.84906       -2.02823
H         -2.85688        1.62094       -0.90522
H         -1.94740        3.63488        0.32081
H         -1.06406        2.17352        0.72410
H         -0.06081        4.44317       -0.73846
H          0.77927        3.25684        0.05419
H         -1.21723        0.89289       -2.72479
H         -0.04872        1.55494       -1.70652
C         -1.95677        2.15055       -1.22278
C         -1.25639        2.88610       -0.08260
N         -0.99621        1.14796       -1.76610
N         -0.00123        3.44746       -0.57137
