38
2msa2dma_16.log	Energy: -1003300.5371448
S          2.36308       -0.12003       -0.52537
O          1.56309       -0.96557       -1.43023
O          2.15842       -0.48118        0.91292
O          2.19523        1.34351       -0.75635
H          0.92489        2.09514        0.04471
C          4.08031       -0.45133       -0.88103
H          4.26518       -1.51117       -0.70469
H          4.26214       -0.19938       -1.92595
H          4.69459        0.16320       -0.22291
S         -2.49827        0.02946       -0.51164
O         -3.43791        1.14835       -0.43817
O         -3.03085       -1.33568       -0.40232
O         -1.36812        0.20071        0.51114
H         -0.64056       -1.22812        0.74255
C         -1.65691        0.13947       -2.08839
H         -2.38575       -0.07938       -2.86957
H         -1.26786        1.15168       -2.20832
H         -0.82971       -0.57206       -2.10251
N          0.15120        2.34643        0.70544
C         -0.54625        3.57885        0.29530
C          0.71994        2.37551        2.06755
H         -0.51881        1.52860        0.63529
H          0.15707        4.41345        0.28676
H         -0.96436        3.43329       -0.70081
H         -1.36129        3.77945        0.99214
H          1.41956        3.20923        2.15262
H         -0.08641        2.48768        2.79455
H          1.25038        1.43451        2.22386
N         -0.10669       -2.10023        1.00565
C         -0.28640       -3.12702       -0.04437
C         -0.56873       -2.51437        2.34300
H          0.87326       -1.75776        1.03231
H         -1.35538       -3.28320       -0.19366
H          0.17344       -2.74843       -0.95668
H          0.20508       -4.05112        0.26723
H         -1.63765       -2.72592        2.29048
H         -0.02317       -3.40353        2.66436
H         -0.39371       -1.69836        3.04452
