32
2msa2ma_210.log	Energy: -953958.1245702
S         -2.39211       -0.44426       -0.12782
O         -3.79163       -0.80043       -0.07052
O         -1.57462       -1.78218       -0.33870
O         -1.81853        0.27746        1.02698
H         -0.59182       -0.08714        2.12362
C         -2.04104        0.51030       -1.57848
H         -2.50911        0.00521       -2.42342
H         -2.45832        1.50633       -1.42945
H         -0.95796        0.56990       -1.70025
S          1.88163       -0.59815       -0.55955
O          2.54117        0.31736        0.38406
O          1.18475        0.02870       -1.69176
O          0.95070       -1.53667        0.20332
H         -0.57848       -1.66074       -0.21124
C          3.13048       -1.67217       -1.24098
H          3.82935       -1.05055       -1.80136
H          3.63707       -2.17821       -0.41928
H          2.64141       -2.38964       -1.89979
N          0.29612       -0.40070        2.57516
H          0.06554       -1.06642        3.30953
C          1.09559        0.74272        3.07886
H          1.99558        0.36513        3.56235
H          1.38473        1.34773        2.22109
H          0.49431        1.31890        3.78181
H          0.77661       -0.90763        1.79153
N          0.26315        2.97662       -1.40044
H          0.79571        2.16165       -1.69526
C          0.22995        3.04005        0.05641
H          1.22084        3.09002        0.53489
H         -0.34979        3.91303        0.37341
H         -0.28742        2.15389        0.43856
H          0.72006        3.79647       -1.78373
