42
2msa2eda_271.log	Energy: -1072753.6980499
S          0.96174       -2.10406       -0.85530
O         -0.03210       -1.02454       -1.19174
O          0.47458       -3.03829        0.16297
O          2.28328       -1.48814       -0.54909
C          1.19928       -3.01342       -2.37122
H          0.24740       -3.46995       -2.64349
H          1.53073       -2.31704       -3.14123
H          1.95386       -3.77879       -2.18858
S         -2.84031        0.45589        0.00372
O         -2.37393        1.55487       -0.84008
O         -2.45162        0.48804        1.40964
O         -2.48127       -0.92722       -0.64673
H         -1.47145       -1.01807       -0.84907
C         -4.61166        0.35857       -0.10288
H         -4.89029        0.28186       -1.15324
H         -4.94190       -0.51510        0.45841
H         -5.00573        1.27411        0.33909
H          0.56037        1.47997        2.24713
H          0.14440        0.49719        0.83564
H         -0.72090       -0.52778        2.94571
H          0.42804       -1.58289        2.12274
H          0.93676       -0.06160        4.56425
H          1.33350       -1.60394        4.20326
H          2.52467        1.30126        1.01175
H          2.64684        0.14571        2.29448
C          0.71848        0.51349        1.76091
C          0.33271       -0.64276        2.67486
N          2.16149        0.39731        1.42626
N          1.25575       -0.67046        3.81802
H          2.29904       -0.36480        0.72064
H          2.93541        3.46292       -1.88793
H          3.39942        1.77641       -1.59578
H          1.17658        1.97568       -2.71379
H          1.07676        1.13106       -1.18543
H          0.17127        3.85337       -1.69501
H         -0.60144        2.62510       -0.94032
H          3.65889        3.31589        0.35762
H          2.01222        3.40604        0.38771
C          2.69300        2.56092       -1.30579
C          1.26703        2.11329       -1.62691
N          2.80553        2.81176        0.14036
N          0.30696        3.06505       -1.07078
