34
2msa1a1eda_241.log	Energy: -988696.8185220
S          1.09617       -1.91983        0.03817
O          2.46286       -2.36006       -0.26341
O          0.28980       -1.66446       -1.20116
O          1.07498       -0.71591        0.93429
H          2.24495        0.24982        0.37787
C          0.23390       -3.19622        0.92364
H          0.20333       -4.08082        0.28697
H          0.77836       -3.39959        1.84576
H         -0.76971       -2.82001        1.12899
S         -2.41361        0.25005       -0.06052
O         -2.25394        1.54909        0.58339
O         -2.33046       -0.95513        0.75430
O         -1.40966        0.16017       -1.26904
H         -0.73834       -0.62828       -1.18793
C         -3.97481        0.26153       -0.91512
H         -4.75263        0.38609       -0.16096
H         -3.97920        1.09708       -1.61463
H         -4.08883       -0.68859       -1.43624
N          0.28211        1.92396        2.32425
H          0.50453        0.93558        2.21562
H         -0.67177        2.01748        1.97759
H          0.26755        2.12582        3.31848
H          2.92247        1.80888       -2.06044
H          1.68014        0.53236       -1.88662
H          0.81318        2.98834       -1.69041
H          0.35182        1.89237       -0.39520
H          1.91614        4.21389       -0.10923
H          1.40116        3.12605        1.04984
H          3.70374        0.23289       -0.44880
H          3.19813        1.66504        0.33380
C          2.18605        1.36159       -1.38787
C          1.20250        2.40860       -0.84897
N          2.91604        0.83010       -0.20535
N          1.87893        3.23729        0.14912
