37
2msa1ma1eda_513.log	Energy: -1013349.9431961
S          3.05745        0.01639        0.44585
O          2.71989       -0.05899        1.85609
O          2.48749        1.15223       -0.30348
O          2.76961       -1.32031       -0.30777
H          1.81588       -1.42827       -0.70696
C          4.82404        0.07187        0.26553
H          5.16933        0.96848        0.78085
H          5.24019       -0.82236        0.72891
H          5.06314        0.11357       -0.79643
S         -0.74029       -1.13348       -0.91977
O          0.54467       -1.72852       -1.39659
O         -1.18765        0.00465       -1.77177
O         -0.66898       -0.74598        0.51346
H         -0.48875        1.09898        0.54791
C         -1.96861       -2.40499       -1.07635
H         -2.07575       -2.64101       -2.13514
H         -1.62173       -3.27534       -0.51846
H         -2.89443       -2.00889       -0.64695
N         -3.87248       -0.87215        1.21036
H         -3.33641       -0.00906        1.25394
C         -3.35184       -1.84445        2.17129
H         -3.46425       -1.54918        3.22485
H         -3.85968       -2.80457        2.03310
H         -2.28701       -1.99059        1.97486
H         -4.83633       -0.63885        1.42340
H         -2.06832        3.18550       -1.57615
H         -2.77669        4.02013       -0.19182
H         -0.26528        3.98253       -0.16901
H         -0.99557        3.27142        1.29090
H         -0.30422        1.52579       -0.98459
H          0.87943        1.92046        0.10013
H         -3.97613        2.08160       -0.22198
H         -2.71842        1.13907       -0.67147
C         -2.22922        3.12085       -0.48856
C         -0.87404        3.15930        0.21199
N         -2.98194        1.93683       -0.09239
N         -0.14498        1.89159       -0.02940
