42
2msa2eda_556.log	Energy: -1072742.9956437
S         -1.31931       -1.37947        0.90955
O         -1.24494       -0.25842        1.85578
O         -0.77016       -1.04922       -0.44857
O         -2.71083       -1.90600        0.72160
H         -3.19681       -1.25091       -0.66479
C         -0.33302       -2.70948        1.55424
H          0.68424       -2.33008        1.67350
H         -0.75995       -3.00704        2.51220
H         -0.35864       -3.53127        0.83882
S          2.67600       -1.07717       -0.52400
O          2.79638       -2.43099       -1.04338
O          2.48266       -0.91726        0.91674
O          1.51864       -0.29420       -1.28515
H          0.61851       -0.58103       -0.91880
C          4.06011       -0.10208       -1.05390
H          4.92669       -0.47031       -0.50351
H          4.19166       -0.25924       -2.12452
H          3.84546        0.94858       -0.83432
H         -4.72990        0.93160       -1.99844
H         -5.01683        0.18051       -0.40572
H         -3.90072        2.44478       -0.20934
H         -2.90924        1.14185        0.45948
H         -2.40006        2.57679       -2.01232
H         -1.35581        2.03304       -0.85230
H         -3.82192       -1.19630       -2.25188
H         -2.50504       -0.23887       -1.81550
C         -4.25158        0.52377       -1.10396
C         -3.31258        1.55543       -0.47105
N         -3.41412       -0.63585       -1.50866
N         -2.20345        1.80721       -1.38246
H          2.21518        1.55787        1.19430
H          2.97824        3.13403        1.35455
H          0.91400        3.19526        2.54754
H          0.74945        4.24132        1.12936
H         -0.32596        1.50374        1.30814
H         -1.17022        2.87848        1.38055
H          1.59180        2.09751       -1.01184
H          2.19835        3.61654       -0.89628
C          2.13575        2.60814        0.88959
C          0.83909        3.19417        1.44805
N          2.30280        2.66459       -0.55896
N         -0.33812        2.46671        0.96698
