37
2msa1ma1eda_429.log	Energy: -1013354.6066080
S          1.25129       -1.80557       -0.44496
O          0.31906       -2.61809        0.34201
O          2.38347       -1.20965        0.28526
O          0.52676       -0.71288       -1.22411
C          1.92814       -2.87169       -1.70534
H          1.10063       -3.27999       -2.28557
H          2.59376       -2.28456       -2.33799
H          2.47524       -3.66996       -1.20297
S         -2.62174        0.86359       -0.61935
O         -3.43981        1.63683       -1.53118
O         -1.54149        1.56994        0.09568
O         -2.00793       -0.35506       -1.40722
H         -1.02097       -0.52926       -1.24281
C         -3.64834        0.07761        0.59108
H         -4.14567        0.87577        1.14434
H         -4.37964       -0.52578        0.05234
H         -3.02202       -0.53884        1.25241
N         -1.49917       -1.51270        2.47943
H         -1.63507       -2.15725        3.25066
C         -0.66386       -0.38878        2.89607
H          0.37494       -0.66220        3.13678
H         -0.64925        0.35502        2.09268
H         -1.10483        0.09512        3.77320
H         -1.01641       -2.03008        1.74561
H          1.58288        2.70721        1.49068
H          1.62249        0.92164        1.52678
H          3.94006        1.89841        1.57721
H          3.63663        0.86221        0.17861
H          3.78999        3.79195        0.15012
H          4.49682        2.71470       -0.85609
H          0.13783        1.98045       -0.21559
H          1.60465        2.43432       -0.97054
C          1.89032        1.80733        0.95059
C          3.38172        1.82162        0.63628
N          1.14574        1.77483       -0.33253
N          3.66113        2.89992       -0.31526
H          1.14284        0.81305       -0.74823
