34
2msa1a1eda_102.log	Energy: -988705.5889018
S         -2.58046       -0.77861       -0.16953
O         -3.80880       -1.55751       -0.24335
O         -1.59648       -1.29033        0.85342
O         -2.78042        0.69515        0.03607
H         -2.08721        1.15499        1.42782
C         -1.75185       -0.91512       -1.74808
H         -1.55811       -1.97257       -1.93648
H         -2.42871       -0.52343       -2.50812
H         -0.82621       -0.33370       -1.72702
S          1.24545        1.96090       -0.28379
O          2.41438        2.82266       -0.40112
O          0.95446        1.52393        1.12844
O          1.27195        0.75232       -1.17450
H          1.15093       -0.55957       -0.24218
C         -0.18708        2.89133       -0.80786
H         -0.26078        3.78105       -0.18061
H         -0.02998        3.18080       -1.84739
H         -1.07763        2.26383       -0.71575
N         -1.41929        1.16180        2.25267
H         -0.45578        1.37503        1.86140
H         -1.42809        0.19581        2.58331
H         -1.69105        1.81120        2.98391
H          1.41424       -3.48722        0.25298
H          1.18992       -2.67181       -1.30824
H          3.61018       -3.23132       -0.94492
H          3.34402       -1.48567       -1.03537
H          3.98573       -3.00274        1.36628
H          4.49033       -1.51210        0.90239
H          0.05748       -1.50851        0.60619
H          1.62857       -1.23238        1.20838
C          1.65079       -2.58754       -0.32183
C          3.16006       -2.37586       -0.42618
N          1.07163       -1.41925        0.36877
N          3.69912       -2.14323        0.91263
