37
2msa1ma1eda_124.log	Energy: -1013364.5123219
S         -2.03293       -1.28394       -0.48825
O         -2.46424       -2.67644       -0.41424
O         -1.37130       -0.78363        0.76865
O         -3.11263       -0.31202       -0.86887
H         -2.85064        1.12699       -0.40640
C         -0.80396       -1.14351       -1.77240
H          0.02764       -1.81157       -1.54733
H         -1.27992       -1.41769       -2.71447
H         -0.42591       -0.11944       -1.79788
S          2.44862        0.32328       -0.41255
O          1.58569        1.26713       -1.15786
O          2.33321       -1.08222       -0.85249
O          2.27988        0.44512        1.07500
H          1.51097       -0.91817        1.64909
C          4.13194        0.82572       -0.74062
H          4.30382        0.73802       -1.81365
H          4.25543        1.85855       -0.41395
H          4.80065        0.16491       -0.18878
N          0.84189       -1.69632        1.89862
H          0.71150       -1.71135        2.90705
C          1.29250       -3.00887        1.38053
H          0.49403       -3.74057        1.50555
H          1.53294       -2.87526        0.32666
H          2.18824       -3.32579        1.91536
H         -0.07639       -1.41288        1.45127
H         -2.55507        3.23130        1.70062
H         -2.50213        1.45124        1.87779
H         -0.20030        2.64280        2.04651
H         -0.31088        1.31310        0.89447
H         -0.05532        4.11197        0.23823
H          0.47426        2.74762       -0.53890
H         -3.68521        2.57789       -0.17804
H         -2.08370        2.66336       -0.69992
C         -2.18318        2.29779        1.26864
C         -0.65690        2.32683        1.10221
N         -2.76377        2.15752       -0.09417
N         -0.30846        3.17084       -0.03762
