40
2msa1dma1eda_547.log	Energy: -1038004.4332806
S          2.32389        1.03331       -0.81750
O          3.39595        1.94968       -1.14824
O          1.91321        0.94225        0.59770
O          2.66351       -0.42945       -1.29526
H          2.84183       -1.05964       -0.47268
C          0.89766        1.40918       -1.80480
H          0.58686        2.42036       -1.53796
H          1.19717        1.36604       -2.85233
H          0.10223        0.68944       -1.59612
S         -2.79916       -0.77060       -0.78946
O         -3.95881       -1.50475       -1.25486
O         -1.58074       -0.77534       -1.60898
O         -2.41707       -1.28074        0.65740
H         -1.38000       -1.35953        0.74283
C         -3.25610        0.91959       -0.49080
H         -3.51951        1.35676       -1.45505
H         -4.11871        0.92084        0.17634
H         -2.39332        1.42203       -0.03564
N         -0.79301        2.10037        1.34342
C         -1.29123        1.47219        2.55622
C         -0.97498        3.54241        1.34378
H          0.18984        1.87341        1.22085
H         -2.37968        1.58939        2.61309
H         -1.08137        0.39976        2.52919
H         -0.85838        1.89569        3.47862
H         -2.04595        3.77763        1.31892
H         -0.54246        4.04092        2.22773
H         -0.51765        3.97515        0.44933
H          0.95873       -2.10568        2.46999
H          0.14556       -3.39632        1.59653
H          2.53458       -3.81904        1.65789
H          2.00022       -3.57359       -0.01094
H          3.19278       -1.38167        1.54727
H          4.05880       -2.37334        0.57858
H          0.64616       -0.64105        0.70539
H          0.19043       -1.80256       -0.35178
C          0.82137       -2.54387        1.47484
C          2.15513       -3.07127        0.95000
N          0.17037       -1.54145        0.63360
N          3.13073       -1.98762        0.73067
