43
2msa1eda1tma_151.log	Energy: -1062677.6767618
S          3.32585       -1.12320       -0.34948
O          4.59040       -1.65439       -0.85490
O          2.13655       -1.34657       -1.21203
O          3.39768        0.33660        0.03488
H          2.07414        0.97564       -0.45895
C          2.97398       -1.96696        1.19160
H          2.89287       -3.03473        0.98156
H          3.79864       -1.78087        1.88063
H          2.03614       -1.57685        1.59344
S         -1.17332       -0.95194        0.52078
O         -0.27831       -0.54120        1.60513
O         -1.24121        0.03370       -0.60676
O         -2.58123       -1.24886        0.98851
H         -3.58709       -0.45297        0.27337
C         -0.56579       -2.47797       -0.15545
H          0.42500       -2.27819       -0.57923
H         -0.51692       -3.20325        0.65765
H         -1.26298       -2.81109       -0.92502
H         -0.04274        2.80649        0.55549
H          0.90215        1.60861        1.46081
H          1.91972        3.88675        1.72127
H          3.00335        2.79284        0.85020
H          1.48054        4.99663       -0.31095
H          3.02656        4.53817       -0.59263
H          0.38741        0.89892       -0.80028
H          1.31978        2.19328       -1.37664
C          0.93385        2.31763        0.63230
C          2.05630        3.33630        0.78140
N          1.17169        1.54220       -0.60346
N          2.09277        4.19435       -0.40619
N         -4.33720        0.14050       -0.25997
C         -3.99712        1.56039       -0.01200
H         -4.04838        1.74947        1.06091
H         -2.97621        1.72147       -0.35947
H         -4.70147        2.20572       -0.54350
C         -4.21029       -0.20626       -1.69458
H         -3.17907       -0.01339       -1.99257
H         -4.43049       -1.26718       -1.81948
H         -4.91116        0.39265       -2.28202
C         -5.65806       -0.22410        0.29307
H         -5.82223       -1.29110        0.13949
H         -5.66425       -0.01220        1.36275
H         -6.44278        0.34958       -0.20709
