29
2msa1a1ma_116.log	Energy: -929295.1736751
S          2.60336       -0.44328        0.32317
O          3.61228       -1.35085        0.84339
O          1.19933       -1.00624        0.36713
O          2.85924        0.04544       -1.07541
H          1.68865       -0.23023       -1.95875
C          2.57718        1.02022        1.34135
H          2.36943        0.71400        2.36733
H          3.56362        1.47995        1.27524
H          1.80695        1.69763        0.96769
S         -1.28619        1.11278       -0.01231
O         -1.48389        0.37077       -1.27895
O         -0.35024        2.22705       -0.08491
O         -0.87901        0.10989        1.11726
H          0.02274       -0.36568        0.86418
C         -2.86646        1.64385        0.57603
H         -3.22369        2.39358       -0.13106
H         -3.52479        0.76698        0.59189
H         -2.72413        2.08165        1.56391
N          0.83213       -0.43193       -2.60509
H          0.75701       -1.43867       -2.72979
H          0.95184        0.02013       -3.50732
H         -0.03533       -0.08911       -2.14072
N         -3.97177       -1.34040       -0.14782
H         -4.82518       -1.67810       -0.57889
C         -3.44107       -2.32344        0.79819
H         -3.21197       -3.30325        0.35524
H         -2.52540       -1.92736        1.24360
H         -4.16463       -2.47499        1.60404
H         -3.30201       -1.16448       -0.89136
