38
2msa1ma1tma_84.log	Energy: -1003279.8871009
S          0.35059        2.11319       -0.13853
O          0.82411        3.40467        0.34343
O         -0.32698        1.29772        0.93800
O          1.39768        1.27880       -0.81144
H          2.15788        0.07460       -0.15874
C         -0.89395        2.38117       -1.38304
H         -1.70189        2.95726       -0.93000
H         -0.43696        2.94033       -2.19988
H         -1.24469        1.40359       -1.71759
S         -1.07736       -1.89393       -0.34716
O         -0.32184       -3.07283       -0.75036
O         -1.46447       -0.91910       -1.35981
O         -0.20671       -1.18270        0.76883
H         -0.32608       -0.15038        0.80151
C         -2.52695       -2.39022        0.54871
H         -3.19252       -2.87818       -0.16487
H         -2.22004       -3.08772        1.32816
H         -2.97701       -1.48045        0.96721
N         -3.32153        0.72408        1.26179
H         -3.79366        1.13710        2.05847
C         -4.03304        1.02580        0.02149
H         -4.14457        2.09952       -0.19373
H         -3.50011        0.56164       -0.81314
H         -5.03475        0.58621        0.05831
H         -2.37851        1.10795        1.23869
N          2.93158       -0.56951        0.19099
C          4.18145        0.17182       -0.10282
H          4.24099        0.34659       -1.17688
H          4.14565        1.13260        0.41083
H          5.03972       -0.41317        0.23586
C          2.74115       -0.75988        1.64979
H          2.67192        0.22114        2.12194
H          1.81166       -1.30439        1.80690
H          3.59158       -1.31549        2.05211
C          2.85346       -1.84927       -0.55589
H          1.88744       -2.31982       -0.36960
H          2.94694       -1.63602       -1.62106
H          3.66779       -2.50207       -0.23164
