35
2msa1ma1dma_46.log	Energy: -978629.9769507
S         -2.50900       -0.09369       -0.09055
O         -1.56713        0.68407       -0.89395
O         -3.78987        0.49540        0.24279
O         -1.81257       -0.49603        1.27517
C         -2.74339       -1.66462       -0.89396
H         -3.21129       -1.46609       -1.85863
H         -1.76277       -2.12699       -1.01785
H         -3.39226       -2.27408       -0.26521
S          1.44174       -1.59483        0.13615
O          2.13089       -0.62175        1.01099
O          1.31918       -1.12817       -1.26858
O          0.12927       -2.04463        0.69941
H         -0.98709       -1.06850        1.09694
C          2.44175       -3.06948        0.09465
H          3.41434       -2.80469       -0.32043
H          2.54369       -3.43932        1.11486
H          1.94143       -3.80440       -0.53591
N          0.43063        1.81084        1.52505
H         -0.53880        1.54728        1.67980
C          0.80552        2.95663        2.35523
H          0.65721        2.78750        3.42884
H          1.86147        3.18998        2.19180
H          0.21774        3.83077        2.06201
H          0.99051        0.98899        1.75832
N          1.14383        1.66356       -1.14294
C          2.60235        1.86908       -1.03430
C          0.48019        2.53650       -2.12844
H          0.97886        0.65970       -1.35416
H          2.79563        2.89990       -0.72982
H          2.98253        1.17208       -0.28633
H          3.07350        1.67422       -1.99934
H          0.64724        3.57916       -1.85027
H          0.90126        2.35325       -3.11907
H         -0.58520        2.31337       -2.12289
H          0.73025        1.80350       -0.16276
