34
2msa1a1eda_193.log	Energy: -988700.3443283
S         -0.74771        1.83397       -0.29991
O          0.06932        2.02877        0.90944
O         -2.16649        1.51872       -0.07318
O         -0.12248        0.79261       -1.21806
C         -0.67418        3.34971       -1.23622
H         -1.12604        4.13603       -0.63106
H          0.37299        3.57503       -1.43940
H         -1.22830        3.20755       -2.16385
S          2.76559       -0.78675       -0.00076
O          4.10481       -1.26484       -0.26190
O          1.69025       -1.77700        0.16129
O          2.38355        0.20561       -1.16857
H          1.40395        0.46970       -1.15557
C          2.75662        0.24764        1.44397
H          2.95289       -0.39719        2.30135
H          3.54852        0.98744        1.32640
H          1.78023        0.73352        1.51710
N         -1.83134        0.41949        2.80449
H         -2.13292        0.52234        3.76748
H         -2.50781        0.88683        2.20579
H         -0.97239        0.95113        2.68311
H         -1.64300       -2.95114        0.85675
H         -1.43340       -1.22907        1.27004
H         -3.84576       -1.78449        0.97568
H         -3.27752       -0.58821       -0.19329
H         -3.88369       -3.39882       -0.75938
H         -4.30954       -2.06298       -1.59905
H          0.05523       -2.08231       -0.53954
H         -1.36410       -2.29427       -1.47880
C         -1.76559       -1.92611        0.49519
C         -3.20625       -1.64088        0.09652
N         -0.91492       -1.77852       -0.71544
N         -3.56713       -2.48031       -1.05116
H         -0.81701       -0.77429       -0.98721
