30
2msa1eda_41.log	Energy: -953205.7025706
S         -1.88116       -1.05443        0.18268
O         -2.85105        0.03988        0.32405
O         -1.08375       -1.38007        1.37133
O         -0.97673       -0.78665       -1.02300
H          0.49985       -1.27275       -1.01143
C         -2.78540       -2.52284       -0.27280
H         -3.46339       -2.75991        0.54752
H         -3.34232       -2.31521       -1.18640
H         -2.07137       -3.33207       -0.42715
S          2.34304       -0.57529       -0.11225
O          3.72450       -0.67699       -0.53144
O          1.48661       -1.50845       -1.05704
O          1.71383        0.75231       -0.07422
H          0.40493        2.07286       -1.19487
C          2.14065       -1.31521        1.49005
H          2.55679       -2.32170        1.44378
H          2.69703       -0.70234        2.20036
H          1.07240       -1.33420        1.72022
H         -1.53407        3.67987       -0.89220
H         -2.40183        2.18412       -0.38669
H         -1.32726        3.31739        1.56626
H         -0.64010        1.72333        1.28192
H          0.72930        4.21349        1.13040
H          1.35845        2.69033        0.96306
H         -0.73806        0.83792       -1.25384
H         -0.77453        2.08437       -2.37786
C         -1.43288        2.67758       -0.46991
C         -0.71032        2.73666        0.87367
N         -0.58600        1.87355       -1.40092
N          0.61522        3.31683        0.67900
