34
2msa1a1eda_142.log	Energy: -988703.9788882
S          0.09437       -2.41077       -0.07299
O         -1.24067       -1.92793        0.58001
O          0.97372       -2.85351        1.00080
O          0.59908       -1.40503       -1.00645
C         -0.40764       -3.83313       -1.01726
H         -0.85716       -4.55391       -0.33453
H         -1.12343       -3.50674       -1.77184
H          0.48601       -4.24796       -1.48437
S         -2.07938        1.35797       -0.10736
O         -1.07660        1.94761       -1.03239
O         -1.69995        1.47097        1.31271
O         -2.44579       -0.04669       -0.49480
H         -1.71779       -1.12833        0.09306
C         -3.58108        2.28498       -0.34933
H         -3.88550        2.17333       -1.38982
H         -4.33815        1.88180        0.32315
H         -3.37298        3.32940       -0.11638
N          0.82170        0.12222        2.25790
H         -0.16706        0.37908        2.21164
H          1.19354        0.47622        3.13270
H          0.88618       -0.89420        2.27648
H          2.31783        2.84577       -1.14916
H          1.94759        2.99386        0.57574
H          4.39829        2.75625        0.26067
H          3.74520        1.35183        1.11028
H          4.57985        1.40152       -1.69208
H          4.93954        0.30773       -0.52434
H          0.51715        1.39837       -0.65736
H          1.86858        0.41569       -0.85998
C          2.34282        2.32180       -0.18945
C          3.76000        1.86920        0.14550
N          1.45645        1.14849       -0.27584
N          4.21960        0.92856       -0.87106
H          1.29524        0.72955        0.68895
