32
2msa1a1dma_76.log	Energy: -953961.2205388
S         -2.08265       -1.10605       -0.03076
O         -3.10747       -0.31556        0.67605
O         -1.00044       -1.60118        0.86185
O         -1.52420       -0.38985       -1.22260
C         -2.89298       -2.55571       -0.68733
H         -3.30799       -3.11683        0.15016
H         -3.68438       -2.22701       -1.36112
H         -2.15502       -3.15227       -1.22410
S          2.67923       -0.26238       -0.05679
O          2.13447        0.81254       -0.86035
O          2.80966       -0.09224        1.38594
O          4.17648       -0.56360       -0.61877
H          4.78289       -0.55530        0.13545
C          1.84327       -1.77301       -0.43302
H          0.82096       -1.68108       -0.04129
H          1.83832       -1.89165       -1.51646
H          2.37527       -2.58696        0.05943
N         -0.04756        1.02240        2.09493
H         -0.44321        1.34326        2.97265
H          0.95991        0.94136        2.21408
H         -0.39950        0.07403        1.92951
N         -1.01933        2.13575       -0.28638
C         -0.14310        3.04744       -1.04474
C         -2.34974        2.69689        0.03090
H         -1.15527        1.23020       -0.79917
H         -0.00451        3.96970       -0.47654
H          0.81684        2.55880       -1.20263
H         -0.60958        3.27800       -2.00449
H         -2.22595        3.56862        0.67695
H         -2.84623        2.99118       -0.89573
H         -2.93230        1.91923        0.52791
H         -0.55998        1.82999        0.62465
