38
2msa1ma1tma_99.log	Energy: -1003277.9172545
S         -2.43066       -0.74511        0.43641
O         -3.69631       -0.28838        1.00349
O         -1.28490       -0.60203        1.40876
O         -2.06232       -0.08718       -0.85866
H         -1.22274        1.21380       -0.65875
C         -2.54615       -2.48057        0.06178
H         -2.75047       -3.01019        0.99259
H         -3.36414       -2.61398       -0.64654
H         -1.59732       -2.79126       -0.37947
S          1.48158       -1.31064       -0.59155
O          1.61080        0.02286       -1.19695
O          0.60071       -2.26304       -1.25089
O          1.09543       -1.15746        0.92529
H          0.07993       -0.95977        1.07534
C          3.10627       -2.00134       -0.41491
H          3.48031       -2.17452       -1.42492
H          3.73295       -1.27318        0.10791
H          3.01729       -2.94096        0.12945
N          4.04213        1.06525        0.52766
H          4.76903        1.74372        0.33250
C          3.41366        1.31504        1.82213
H          2.96026        2.31355        1.93103
H          2.63374        0.56660        1.98790
H          4.15741        1.19853        2.61542
H          3.36049        1.10389       -0.22535
N         -0.87667        2.21660       -0.52205
C         -0.25639        2.64013       -1.79884
H          0.56157        1.95414       -2.02004
H         -1.00770        2.58205       -2.58700
H          0.10876        3.66570       -1.70159
C         -2.10191        2.98605       -0.19884
H         -2.81149        2.87751       -1.01907
H         -2.54618        2.56844        0.70568
H         -1.84499        4.03759       -0.05088
C          0.09204        2.23505        0.60173
H         -0.37390        1.76443        1.46818
H          0.96650        1.65779        0.30550
H          0.36543        3.27093        0.81834
