40
2msa1dma1eda_305.log	Energy: -1038020.1969021
S         -1.23179       -2.11256        0.01108
O         -2.15757       -3.11303        0.49415
O          0.22424       -2.68564        0.19055
O         -1.29158       -0.76717        0.61295
H         -0.14783        0.07743        1.66803
C         -1.38525       -1.91775       -1.74818
H         -1.22995       -2.89616       -2.20268
H         -2.39093       -1.55149       -1.95933
H         -0.63418       -1.19204       -2.07036
S          2.02825        0.31201       -0.91894
O          2.23946        1.29876        0.16993
O          0.80119        0.54963       -1.70480
O          2.10861       -1.09452       -0.39937
H          0.94621       -2.01863       -0.08973
C          3.41392        0.47863       -2.02468
H          3.39854        1.49053       -2.42986
H          4.32814        0.30081       -1.45876
H          3.30165       -0.25766       -2.82056
N          0.60000        0.49481        2.25448
C          1.42921       -0.59908        2.81039
C         -0.01140        1.38055        3.26821
H          1.17605        1.04014        1.57783
H          0.79291       -1.27595        3.38192
H          1.89828       -1.12737        1.98063
H          2.19600       -0.16851        3.45587
H         -0.68323        0.79221        3.89514
H          0.77925        1.81824        3.87966
H         -0.55032        2.16010        2.72938
H         -2.57176        2.00002        0.91532
H         -2.37379        3.73642        0.69344
H         -3.77811        2.78106       -1.08411
H         -2.28625        3.39296       -1.79426
H         -1.46673        1.21511       -1.99620
H         -2.65565        0.58736       -1.08415
H         -0.35282        1.81469       -0.21574
H         -0.17545        3.40891       -0.01096
C         -2.10501        2.75997        0.27241
C         -2.69467        2.61568       -1.13709
N         -0.65529        2.59648        0.36404
N         -2.45031        1.31847       -1.75974
