40
2msa1dma1eda_402.log	Energy: -1038011.9481081
S          1.16569        2.14599       -0.28974
O          2.31792        1.37686        0.22271
O          0.11163        2.44345        0.66446
O          0.62304        1.47713       -1.58621
H          0.05377        0.60059       -1.43921
C          1.80300        3.65551       -0.97320
H          2.24895        4.21253       -0.14891
H          2.54939        3.40854       -1.72727
H          0.96945        4.20583       -1.40870
S         -0.44231       -1.82012       -0.61022
O         -0.75358       -0.56346       -1.37625
O         -0.55853       -1.64468        0.84560
O          0.88386       -2.38409       -1.00340
H          1.98187       -1.81891        0.11505
C         -1.69092       -2.96272       -1.15270
H         -2.66670       -2.51228       -0.95254
H         -1.55608       -3.12441       -2.22207
H         -1.55837       -3.89211       -0.59863
N          2.63297       -1.31086        0.77013
C          4.03093       -1.58247        0.38079
C          2.30414       -1.65447        2.17154
H          2.43516       -0.30262        0.61211
H          4.24000       -2.64478        0.51453
H          4.16087       -1.31123       -0.66674
H          4.70231       -0.98832        1.00257
H          2.50928       -2.71356        2.33494
H          2.91338       -1.04527        2.84116
H          1.24234       -1.46031        2.32189
H         -4.66108       -0.17165        1.32436
H         -3.24521       -1.21105        1.19114
H         -2.63592        0.72433        2.49990
H         -1.76092        0.72557        0.97427
H         -3.94689        2.51714        1.68141
H         -2.47511        2.85116        1.03973
H         -4.32092        0.58656       -0.85015
H         -2.90729       -0.17158       -1.01328
C         -3.66364       -0.24896        0.87205
C         -2.75360        0.85590        1.41145
N         -3.82602       -0.25874       -0.58096
N         -3.23844        2.18438        1.03640
