38
2msa2dma_190.log	Energy: -1003273.9264323
S          1.51127        1.93596        0.22613
O          1.97103        3.15456        0.87482
O          1.30249        0.77801        1.16876
O          2.38052        1.47092       -0.90759
H          2.86221        0.03109       -0.79108
C         -0.08156        2.25825       -0.51050
H         -0.75621        2.59893        0.27575
H          0.05312        3.03975       -1.25878
H         -0.44398        1.33494       -0.96573
S         -0.83621       -1.64778        0.39921
O          0.20933       -2.63984        0.64501
O         -0.83339       -1.03407       -0.93398
O         -0.80337       -0.52681        1.50108
H          0.05342        0.05005        1.39742
C         -2.42867       -2.34966        0.72606
H         -2.54576       -3.18377        0.03298
H         -2.44184       -2.69917        1.75821
H         -3.17608       -1.57147        0.53470
N          3.27823       -0.96406       -0.83877
C          2.49861       -1.74881       -1.82710
C          3.32680       -1.56985        0.51628
H          4.22840       -0.83142       -1.18315
H          1.46447       -1.80018       -1.48732
H          2.54319       -1.23718       -2.78868
H          2.91617       -2.75385       -1.90938
H          2.30635       -1.77514        0.83684
H          3.89820       -2.49934        0.47410
H          3.78964       -0.85819        1.19904
N         -3.62998        0.46936       -0.46586
C         -3.51937        1.50219        0.55173
C         -4.62467        0.77682       -1.47987
H         -2.72597        0.31789       -0.90485
H         -4.46086        1.56629        1.10822
H         -2.72704        1.23644        1.25614
H         -3.30877        2.50464        0.13828
H         -5.61912        0.79616       -1.02074
H         -4.46457        1.75203       -1.97234
H         -4.62328       -0.00208       -2.24691
