34
2msa1a1eda_227.log	Energy: -988696.6831243
S          2.32920       -0.31538       -0.29411
O          1.67499        0.44603       -1.35494
O          2.74726        0.39911        0.91502
O          3.60185       -1.01977       -0.91436
H          4.43379       -0.84820       -0.32828
C          1.29272       -1.68791        0.13119
H          0.31120       -1.29470        0.40962
H          1.18861       -2.31210       -0.75629
H          1.76648       -2.23328        0.94736
S         -2.91044       -0.73583        0.11436
O         -2.75471       -0.53517        1.56762
O         -1.75802       -1.39744       -0.53797
O         -3.27415        0.53631       -0.60838
H         -1.92561        1.17563       -1.16733
C         -4.32452       -1.80420       -0.10720
H         -4.11259       -2.74890        0.39429
H         -5.19230       -1.31917        0.34015
H         -4.47538       -1.95996       -1.17545
N          5.61791       -0.45822        0.67676
H          5.10033        0.11534        1.33996
H          6.34693        0.11243        0.26108
H          6.06035       -1.21879        1.18204
H          0.37913        3.01329       -0.63592
H         -1.30778        3.56780       -0.82770
H         -0.68786        3.23507        1.59122
H         -2.03505        2.21149        1.07699
H          0.62534        1.29284        1.76599
H         -0.86415        0.52638        1.85144
H         -0.80048        1.74832       -2.33297
H         -0.28067        0.81739       -1.07488
C         -0.67087        2.74508       -0.49373
C         -0.95973        2.37564        0.96372
N         -0.94366        1.55863       -1.34443
N         -0.26763        1.14734        1.31264
