35
2msa1ma1dma_287.log	Energy: -978614.2210350
S         -2.67639       -1.00203       -0.30684
O         -3.98841       -1.63604       -0.20228
O         -2.06969       -0.55863        0.97383
O         -2.64995        0.14755       -1.29542
H         -2.21340        1.39269       -0.67280
C         -1.55398       -2.20505       -1.00684
H         -1.52655       -3.06339       -0.33348
H         -1.94331       -2.50398       -1.98062
H         -0.56737       -1.74785       -1.10051
S          1.65326       -0.14156        0.82577
O          1.45166       -0.58293       -0.55973
O          1.26898        1.22972        1.14739
O          3.16418       -0.36567        1.19984
H          3.73374       -0.58976        0.32604
C          0.81718       -1.24135        1.93357
H         -0.25637       -1.11949        1.74672
H          1.14744       -2.25773        1.71854
H          1.07865       -0.95384        2.95229
N          4.42178       -0.83369       -0.98017
H          5.29641       -1.34602       -0.92031
C          4.60384        0.45712       -1.66238
H          5.03131        0.35249       -2.66467
H          3.62938        0.94283       -1.74066
H          5.25665        1.09065       -1.05870
H          3.75441       -1.40780       -1.49010
N         -1.92298        2.40562       -0.34825
C         -0.67758        2.77479       -1.05770
C         -1.81773        2.48111        1.12880
H         -2.68614        3.00220       -0.66449
H          0.11841        2.12014       -0.70269
H         -0.83176        2.63147       -2.12757
H         -0.42077        3.81474       -0.84413
H         -0.97514        1.86511        1.43890
H         -1.65993        3.52001        1.42833
H         -2.73185        2.07961        1.56423
