35
2msa1ma1dma_150.log	Energy: -978623.4691818
S         -2.47197       -0.16101       -0.67239
O         -3.77677       -0.14992       -1.29392
O         -1.77554        1.12819       -0.51975
O         -1.57118       -1.15925       -1.48119
H         -0.59823       -1.17928       -1.18145
C         -2.58157       -0.88165        0.94967
H         -3.31160       -0.29037        1.50483
H         -2.92769       -1.90969        0.84167
H         -1.60004       -0.82883        1.43356
S          1.96845       -0.46603       -0.78304
O          0.82163       -1.41666       -0.63989
O          2.33714        0.11310        0.55015
O          1.75025        0.57021       -1.79963
H         -0.29350        1.65777        0.11774
C          3.35613       -1.46495       -1.27987
H          3.51298       -2.23486       -0.52448
H          3.11815       -1.91234       -2.24502
H          4.22721       -0.81449       -1.35917
N          0.38239       -0.93160        2.65200
H          1.16950       -0.64942        2.06836
C          0.19433       -2.38030        2.53099
H          1.03933       -2.97502        2.90501
H         -0.70461       -2.68526        3.07685
H          0.05554       -2.62452        1.47496
H          0.61868       -0.69412        3.61042
N          0.48103        2.14169        0.61668
C          0.00524        2.48107        1.97314
C          0.92518        3.28708       -0.20683
H          1.25558        1.44095        0.67798
H         -0.84602        3.15897        1.89571
H         -0.29396        1.55269        2.46451
H          0.81359        2.95926        2.52913
H          0.08617        3.96816       -0.35577
H          1.74151        3.80023        0.30425
H          1.26979        2.88941       -1.16170
