35
2msa1ma1dma_58.log	Energy: -978628.3344258
S         -2.37741       -0.26017       -0.05069
O         -1.54655        0.43781       -1.02761
O         -2.48406        0.37908        1.26825
O         -1.93521       -1.74035        0.10219
H         -0.92968       -1.93984       -0.20209
C         -4.02284       -0.45603       -0.69070
H         -4.45528        0.53994       -0.78976
H         -3.95184       -0.94926       -1.65965
H         -4.59599       -1.05767        0.01445
S          1.57495       -1.61309       -0.10347
O          2.07946       -0.58542       -1.02546
O          0.34387       -2.31150       -0.60980
O          1.38939       -1.12571        1.29093
H          0.67026        0.40256        1.56054
C          2.79975       -2.90367       -0.01853
H          3.72903       -2.45993        0.33911
H          2.44338       -3.66759        0.67213
H          2.92803       -3.31458       -1.01997
N          0.22658        1.34768        1.57099
H          0.46645        1.77051        0.60319
C          0.74233        2.18136        2.66920
H          0.26041        3.15948        2.64392
H          0.54541        1.70225        3.62871
H          1.81841        2.30587        2.54294
H         -0.78938        1.19280        1.62769
N          1.07190        2.20432       -0.89136
C          2.45739        2.65177       -0.78330
C          0.23450        3.09749       -1.68484
H          1.07407        1.26818       -1.29906
H          2.49982        3.59295       -0.22309
H          3.03583        1.89041       -0.25457
H          2.92564        2.81746       -1.76463
H          0.14603        4.06539       -1.17882
H          0.64662        3.27555       -2.68941
H         -0.75922        2.65686       -1.78136
