40
2msa1dma1eda_210.log	Energy: -1038021.3552406
S         -2.78936       -0.23530       -0.22959
O         -2.45850        1.24948        0.11016
O         -2.60149       -1.10288        0.93163
O         -2.10797       -0.65208       -1.46293
C         -4.52342       -0.08326       -0.57219
H         -5.01632        0.28395        0.32741
H         -4.64879        0.61086       -1.40254
H         -4.88451       -1.07775       -0.83519
S          1.01091        2.27698        0.04912
O          0.47787        3.30122       -0.84191
O          2.03121        1.37329       -0.55426
O         -0.06166        1.43628        0.70781
H         -1.44185        1.39451        0.33344
C          1.82989        3.09484        1.40729
H          1.10571        3.74914        1.89305
H          2.19746        2.34019        2.10308
H          2.65525        3.67617        0.99537
N          0.32393       -1.91107        1.41652
C          1.09726       -1.17763        2.41479
C          0.54555       -3.35216        1.47305
H         -0.66814       -1.70456        1.52964
H          2.16221       -1.34243        2.22411
H          0.87657       -0.11290        2.31396
H          0.87270       -1.50185        3.44211
H          1.58930       -3.55822        1.21444
H          0.34170       -3.77708        2.46739
H         -0.10202       -3.85107        0.74626
H          1.40427       -2.93147       -1.60182
H          1.32934       -1.82222       -2.99075
H          3.66799       -2.31128       -2.19365
H          3.26354       -0.58981       -2.24519
H          4.36631       -1.59655       -0.14823
H          3.14076       -0.53927        0.05181
H         -0.24779       -0.95930       -1.48738
H          0.64016       -1.34541       -0.11438
C          1.59268       -1.90715       -1.93333
C          3.05760       -1.53508       -1.72266
N          0.71962       -1.01064       -1.14250
N          3.37222       -1.46841       -0.29661
H          1.10778       -0.04955       -1.10302
