40
2msa1dma1eda_45.log	Energy: -1038036.0042860
S          2.67179       -0.77877       -0.32777
O          2.43232        0.43347       -1.16223
O          2.49372       -2.05275       -1.03557
O          1.87246       -0.71677        0.94110
C          4.38262       -0.67934        0.17261
H          4.99596       -0.70204       -0.72856
H          4.53329        0.25320        0.71690
H          4.60214       -1.53728        0.80825
S         -2.97847        0.15218       -0.26386
O         -3.29791       -1.13389       -0.89644
O         -2.41998        1.17817       -1.19030
O         -2.09330       -0.00659        0.93780
C         -4.50828        0.83741        0.34936
H         -5.17480        0.98348       -0.50099
H         -4.93808        0.12666        1.05546
H         -4.29518        1.78780        0.83880
N         -0.44696       -2.16233        0.63529
C         -0.64314       -3.17781        1.68576
C         -0.56033       -2.69485       -0.74311
H         -1.14198       -1.38714        0.76447
H          0.11812       -3.95286        1.58364
H         -0.55229       -2.69868        2.66080
H         -1.63710       -3.61521        1.58004
H          0.20894       -3.45160       -0.89435
H         -1.56646       -3.08770       -0.88684
H         -0.39371       -1.87968       -1.44567
H          0.48632       -1.70490        0.75805
H         -0.62994        2.58699        1.08960
H          0.41420        1.15403        1.20944
H          1.61230        3.18125        2.06526
H          2.39901        2.48723        0.63970
H          0.77548        4.92495        0.66939
H          2.26609        4.68977        0.03504
H         -0.78640        1.55507       -0.97558
H          0.31602        2.82520       -1.17854
C          0.29622        2.12798        0.73547
C          1.50646        3.01732        0.98523
N          0.16607        1.91633       -0.72781
N          1.37058        4.24845        0.20342
H          0.92737        1.27239       -1.04139
