29
2msa1a1ma_108.log	Energy: -929295.4123170
S         -1.30976       -1.12726        0.23493
O         -1.41873       -0.26081        1.42765
O         -0.40863       -2.26409        0.35901
O         -0.92948       -0.24698       -1.00835
H         -0.01059        0.23582       -0.84391
C         -2.93600       -1.65054       -0.22155
H         -3.33938       -2.19274        0.63426
H         -3.52278       -0.75594       -0.46251
H         -2.84130       -2.30818       -1.08582
S          2.58315        0.35626       -0.40296
O          3.58194        1.16079       -1.08687
O          1.18314        0.93327       -0.48834
O          2.87700        0.07872        1.04244
H          1.72496        0.55142        1.92257
C          2.49902       -1.23875       -1.19445
H          2.26290       -1.07920       -2.24720
H          3.48002       -1.70360       -1.09255
H          1.73138       -1.83960       -0.70340
N          0.85938        0.96731        2.42617
H          0.78173        1.93876        2.13235
H          0.95073        0.91165        3.43659
H          0.00555        0.46279        2.10502
N         -3.65218        1.37632       -1.21926
H         -2.74975        1.23405       -1.66324
C         -3.50913        2.24137       -0.04840
H         -3.09520        3.23696       -0.26438
H         -4.48609        2.37332        0.42536
H         -2.85503        1.74811        0.67604
H         -4.26692        1.79719       -1.90705
