38
2msa2dma_153.log	Energy: -1003279.5626785
S         -1.11026       -0.02248        0.72742
O         -2.23157        0.06319        1.65851
O          0.23215       -0.07068        1.43557
O         -1.06469        1.07433       -0.28898
H          0.37989        1.79124       -0.27213
C         -1.24468       -1.54569       -0.18286
H         -1.18716       -2.36661        0.53348
H         -2.22492       -1.53472       -0.66973
H         -0.42680       -1.59438       -0.90400
S          2.82175       -1.07702       -0.30409
O          3.29778        0.29627       -0.05029
O          2.02851       -1.25797       -1.51256
O          2.07804       -1.62137        0.95325
H          1.24687       -1.00037        1.18645
C          4.23141       -2.15298       -0.33067
H          4.84662       -1.85089       -1.17860
H          4.77221       -2.03507        0.60756
H          3.87453       -3.17490       -0.45641
N          1.31238        2.28164       -0.16098
C          1.28017        3.02733        1.11551
C          1.58659        3.10410       -1.35484
H          2.02802        1.53440       -0.09305
H          0.49477        3.78275        1.06636
H          1.05647        2.31434        1.90916
H          2.24897        3.49983        1.28619
H          0.80449        3.85759       -1.45870
H          2.55930        3.58754       -1.24987
H          1.58982        2.45439       -2.23016
N         -4.45547       -0.61636       -0.42221
C         -5.76412       -1.22552       -0.27242
C         -4.47704        0.57805       -1.25067
H         -4.06967       -0.38236        0.48915
H         -6.10625       -1.60963       -1.24060
H         -5.70278       -2.06971        0.42011
H         -6.53501       -0.52654        0.10025
H         -4.72338        0.30569       -2.28393
H         -5.21665        1.32806       -0.91629
H         -3.48740        1.04229       -1.24453
