35
2msa1ma1dma_267.log	Energy: -978616.1293415
S          0.04113       -2.24003       -0.06360
O          0.03149       -3.60967        0.42967
O          0.51991       -1.24427        0.96618
O         -1.26384       -1.77658       -0.64018
H         -2.29225       -0.76530       -0.11687
C          1.20132       -2.12375       -1.40945
H          2.17968       -2.42450       -1.03248
H          0.87052       -2.80295       -2.19555
H          1.21253       -1.08832       -1.75301
S          0.26429        2.02272       -0.27508
O         -0.79189        2.97416       -0.60073
O          0.82928        1.20861       -1.34513
O         -0.33448        1.08195        0.84662
H          0.07937        0.12344        0.86339
C          1.58178        2.86238        0.56568
H          2.04081        3.53899       -0.15664
H          1.14844        3.42062        1.39568
H          2.28986        2.09810        0.91403
N          3.26616        0.10449        1.13569
H          3.90791       -0.15652        1.87611
C          3.90923       -0.00309       -0.17234
H          4.28800       -1.00754       -0.41566
H          3.19051        0.28968       -0.94276
H          4.75136        0.69408       -0.22478
H          2.46544       -0.52215        1.19399
N         -3.20272       -0.24062        0.10123
C         -3.38097        0.87336       -0.86352
C         -3.23139        0.17239        1.52503
H         -3.92405       -0.94355       -0.05918
H         -2.60212        1.61892       -0.69413
H         -3.28542        0.47166       -1.87230
H         -4.36673        1.32103       -0.72333
H         -2.43674        0.90142        1.67718
H         -4.20527        0.60647        1.75810
H         -3.04635       -0.70538        2.14488
