35
2msa1ma1dma_36.log	Energy: -978630.2699537
S         -2.26995       -0.65266       -0.14539
O         -2.94169        0.44372        0.56980
O         -1.89411       -1.82297        0.65619
O         -1.06970       -0.09965       -0.90998
C         -3.38267       -1.22136       -1.41888
H         -4.27049       -1.61926       -0.92660
H         -3.64186       -0.37685       -2.05736
H         -2.87993       -2.00200       -1.99022
S          1.92822       -1.37345        0.17079
O          1.66300       -0.11058        0.87322
O          3.30369       -1.70071       -0.14929
O          1.11337       -1.38019       -1.18101
H          0.20797       -0.92066       -1.07020
C          1.18738       -2.68745        1.10690
H          1.68677       -2.71303        2.07619
H          0.11969       -2.47397        1.20728
H          1.35383       -3.61741        0.56320
N          2.35520        2.50875       -0.25006
H          3.00428        3.27290       -0.09609
C          2.30009        2.14863       -1.67349
H          3.26153        1.81540       -2.07995
H          1.58323        1.33357       -1.80597
H          1.95219        3.00764       -2.25375
H          2.68234        1.70531        0.28476
N         -0.31085        2.15984        0.54043
C         -1.24166        3.15823       -0.02204
C         -0.46452        1.95599        1.99784
H         -0.48975        1.25642        0.05405
H         -1.08227        4.12026        0.46874
H         -1.04906        3.25279       -1.09144
H         -2.26173        2.80623        0.13789
H         -0.27606        2.90131        2.51078
H         -1.47890        1.60501        2.19156
H          0.25759        1.20240        2.30983
H          0.68967        2.42045        0.31479
