42
2msa2eda_371.log	Energy: -1072753.2524993
S         -0.97468       -2.33752       -0.34162
O         -2.29633       -1.73246       -0.10091
O         -0.30508       -2.93059        0.81430
O         -0.08676       -1.31515       -1.05539
C         -1.19820       -3.62746       -1.55643
H         -1.86667       -4.37374       -1.12567
H         -1.63673       -3.19013       -2.45330
H         -0.22426       -4.06712       -1.77235
S          2.68416        0.59675       -0.52679
O          3.24642        0.83512        0.79494
O          1.53186        1.40265       -0.93247
O          2.36099       -0.92592       -0.71073
H          1.34666       -1.12670       -0.81473
C          3.98182        0.81062       -1.72403
H          4.33106        1.84023       -1.64099
H          4.78318        0.11207       -1.48387
H          3.57279        0.61445       -2.71459
H         -2.44004        1.02034       -2.24527
H         -3.21357        0.44729       -0.76229
H         -4.18527        2.63872       -1.45872
H         -3.33124        2.80365        0.07841
H         -2.30413        3.68662       -2.51981
H         -2.46957        4.55221       -1.14047
H         -0.78373        0.27754       -0.74596
H         -0.67241        1.93901       -0.80456
C         -2.58780        1.23605       -1.18277
C         -3.19029        2.62117       -0.99214
N         -1.27376        1.16423       -0.51476
N         -2.26828        3.63040       -1.50761
H         -1.39438        1.21040        0.54387
H         -1.27649       -0.17097        3.86323
H         -1.63479       -0.87966        2.27298
H          0.75757       -1.14393        2.81659
H          0.53563       -0.13143        1.40758
H          1.32172        0.79907        4.04774
H          1.96092        1.13827        2.57723
H         -2.53296        1.41526        2.62414
H         -0.96996        1.94004        2.65181
C         -1.10646       -0.06889        2.78113
C          0.38659       -0.16520        2.49049
N         -1.59793        1.22677        2.27732
N          1.09028        0.97772        3.07624
