25
2msa1ma_65.log	Energy: -893791.0252368
S          2.33945       -0.21805        0.15047
O          3.55373       -0.81064        0.65311
O          1.27571        0.15303        1.09724
O          1.73156       -1.19366       -0.93701
H          0.75271       -1.02914       -1.06098
C          2.73697        1.23822       -0.79048
H          3.14222        1.97342       -0.09429
H          3.48003        0.96149       -1.53801
H          1.82542        1.60992       -1.25925
S         -1.81113       -1.05047       -0.09078
O         -2.24014       -2.42880       -0.14916
O         -0.82183       -0.58295       -1.08389
O         -1.22648       -0.73600        1.35374
H         -0.28551       -0.42067        1.29960
C         -3.21120        0.02813       -0.15627
H         -3.67119       -0.11554       -1.13511
H         -3.89562       -0.28340        0.63356
H         -2.87218        1.06195       -0.01026
N         -1.94010        3.05174        0.29813
H         -2.41852        3.79879       -0.19370
C         -0.60337        2.83323       -0.25528
H          0.02659        3.73419       -0.29242
H         -0.08861        2.07907        0.34520
H         -0.69821        2.43207       -1.26909
H         -1.88435        3.32674        1.27281
