37
2msa1ma1eda_120.log	Energy: -1013362.5326613
S          1.85609       -1.34626       -0.37292
O          0.64222       -2.22838       -0.38351
O          2.41215       -1.12897        0.97124
O          1.60184       -0.08457       -1.12396
C          3.08014       -2.24335       -1.30841
H          3.25733       -3.19406       -0.80538
H          2.69298       -2.40370       -2.31454
H          3.99190       -1.64604       -1.33317
S         -2.36580       -0.89751        0.38906
O         -3.63414       -0.30008       -0.00150
O         -1.50442       -0.15712        1.30967
O         -1.58711       -1.20888       -0.94062
H         -0.64859       -1.59827       -0.74596
C         -2.64261       -2.50603        1.09390
H         -3.15895       -2.36238        2.04339
H         -3.25249       -3.08530        0.40109
H         -1.66759       -2.97080        1.24910
N          2.49217        1.78693        1.70737
H          2.66106        2.15258        2.63849
C          3.59112        2.13539        0.80010
H          4.56912        1.77060        1.13775
H          3.38312        1.69149       -0.17738
H          3.64751        3.22171        0.68270
H          2.44105        0.76728        1.77712
H         -0.16705        3.90502       -0.20805
H          0.63021        3.00441       -1.52026
H         -1.73764        3.45809       -2.13328
H         -1.49813        1.72763       -1.89593
H         -3.04777        3.49359       -0.21479
H         -3.16621        1.85323       -0.39633
H          0.96019        2.06379        0.85094
H         -0.67513        1.59713        0.70834
C         -0.15550        2.96252       -0.76190
C         -1.53018        2.69148       -1.37602
N          0.16550        1.87031        0.17870
N         -2.52401        2.63456       -0.31400
H          0.50262        1.03558       -0.34323
