42
2msa2eda_249.log	Energy: -1072756.0092425
S          0.44567        2.10710       -0.67297
O          1.08385        1.11806       -1.60188
O          1.06050        2.10146        0.66750
O         -1.03235        1.94025       -0.64686
C          0.74686        3.70361       -1.40521
H          1.82514        3.84526       -1.47930
H          0.28590        3.71878       -2.39260
H          0.30153        4.45880       -0.75731
S          2.58305       -1.40607        0.49256
O          3.41247       -2.59201        0.52696
O          1.21957       -1.49814        1.02568
O          2.54452       -0.91576       -1.00664
H          1.94771       -0.11204       -1.15846
C          3.39570       -0.06895        1.33788
H          3.48137       -0.35713        2.38645
H          4.38227        0.05820        0.89206
H          2.77889        0.82690        1.22433
H         -1.33289       -0.66703        2.96116
H         -0.34536        0.69355        2.38268
H         -2.35864        1.57971        3.47755
H         -2.36830        1.94497        1.74825
H         -3.99525       -0.11879        3.04772
H         -4.48080        1.10922        2.08158
H         -0.47096       -0.89767        0.68733
H         -2.14371       -0.98080        0.67623
C         -1.29880        0.17448        2.26352
C         -2.45948        1.13371        2.47740
N         -1.33141       -0.36520        0.88746
N         -3.73059        0.45054        2.25103
H         -1.34463        0.42836        0.21771
H         -3.09786       -2.94569       -2.44054
H         -4.23030       -1.75991       -1.78210
H         -2.52825       -0.75458       -3.29855
H         -2.53360       -0.03547       -1.69193
H         -0.53835       -1.96041       -2.63945
H         -0.30482       -0.43199       -2.10223
H         -3.54090       -3.11022       -0.00143
H         -1.95378       -2.93522       -0.36831
C         -3.18721       -2.09021       -1.75209
C         -2.29281       -0.95183       -2.24080
N         -2.85403       -2.46188       -0.37069
N         -0.88795       -1.25904       -1.99446
