34
2msa1a1eda_22.log	Energy: -988713.1619936
S          2.48438       -1.07010       -0.09074
O          2.83159        0.11302       -0.90165
O          2.16553       -2.29378       -0.84695
O          1.36240       -0.73597        0.87483
C          3.89742       -1.43595        0.93358
H          4.72597       -1.69143        0.27241
H          4.13465       -0.55177        1.52540
H          3.64676       -2.27779        1.57898
S         -3.00034       -0.16910        0.12579
O         -2.70654        1.05272        0.88902
O         -3.04495       -1.42420        0.90388
O         -2.04287       -0.30817       -1.04594
C         -4.61134        0.03741       -0.61168
H         -5.33541        0.13870        0.19728
H         -4.59580        0.93674       -1.22749
H         -4.83142       -0.84303       -1.21540
N         -0.60647       -2.41655       -0.03358
H         -0.06487       -3.12865       -0.52050
H          0.06993       -1.85254        0.52887
H         -1.06427       -1.74846       -0.69132
H         -1.36461       -2.77262        0.55190
H         -0.43408        3.37563       -0.53191
H         -0.71329        2.53608        1.01446
H          1.28423        4.12311        1.04345
H          1.71879        2.46062        1.44422
H          2.94884        3.87794       -0.47010
H          2.79120        2.24420       -0.59684
H         -0.79837        0.95696       -0.81674
H          0.75757        1.43421       -1.28485
C         -0.01537        2.66775        0.18631
C          1.37397        3.11465        0.63024
N          0.10712        1.35730       -0.49710
N          2.28030        3.12084       -0.51487
H          0.52354        0.64610        0.14002
