26
2msa2a_16.log	Energy: -904649.8205991
S          2.36243       -0.26160        0.05199
O          2.29636       -1.09468        1.23977
O          2.14151        1.18387        0.24781
O          1.42959       -0.78504       -1.08552
H          0.47130       -1.06915       -0.77039
C          3.94042       -0.44938       -0.74026
H          4.68931       -0.06182       -0.04906
H          4.09977       -1.51053       -0.92913
H          3.93523        0.12038       -1.66891
S         -2.01945       -0.69059       -0.02535
O         -0.84646       -1.52935       -0.42714
O         -2.41601        0.28490       -1.05863
O         -1.83196       -0.07654        1.31828
H         -0.84019        1.26295        1.47357
C         -3.34851       -1.86141        0.15152
H         -3.50449       -2.34057       -0.81487
H         -3.05786       -2.59220        0.90571
H         -4.23898       -1.31437        0.46154
N         -0.24320        2.12040        1.35784
H         -0.66581        2.66574        0.54976
H          0.70972        1.81805        1.08329
H         -0.21738        2.66419        2.21447
N         -1.43948        3.07635       -0.97456
H         -2.16630        3.78322       -1.01653
H         -1.87269        2.16563       -1.16411
H         -0.78629        3.26569       -1.72858
