26
2msa2a_54.log	Energy: -904640.2578693
S          2.36455       -0.35970       -0.05858
O          2.80226        0.54306        1.05168
O          2.48827        0.25419       -1.39501
O          1.00622       -0.90096        0.21657
C          3.49065       -1.74473       -0.02220
H          4.49846       -1.36424       -0.18960
H          3.41526       -2.22268        0.95456
H          3.20435       -2.43520       -0.81595
S         -2.48844       -0.25263        0.01164
O         -2.04651        0.25883        1.29870
O         -2.35705        0.58167       -1.17553
O         -4.06934       -0.59682        0.15980
H         -4.54968       -0.08030       -0.50336
C         -1.81017       -1.86137       -0.25979
H         -2.08275       -2.48478        0.59201
H         -2.22467       -2.24975       -1.18971
H         -0.72362       -1.72205       -0.31267
N          0.44563        1.81033        1.47176
H         -0.27155        1.09142        1.61390
H          0.34075        2.55553        2.15263
H          1.39836        1.36366        1.51370
H          0.33584        2.16630        0.46133
N          0.28386        2.31669       -1.23049
H          0.38382        3.21167       -1.69717
H         -0.58034        1.88388       -1.55041
H          1.05794        1.71161       -1.52487
