42
2msa2eda_180.log	Energy: -1072762.3544740
S         -2.96336       -0.39597       -0.59119
O         -2.58306        0.61989        0.42829
O         -4.39991       -0.56298       -0.79100
O         -2.25321       -1.70169       -0.34262
H         -0.88888       -2.17413        0.16821
C         -2.27020        0.18713       -2.13816
H         -2.69556        1.16898       -2.35078
H         -1.18335        0.24083       -2.04228
H         -2.54926       -0.52259       -2.91756
S          2.58757       -0.53734       -0.69237
O          1.29218        0.03558       -1.13397
O          2.42025       -1.88680       -0.08175
O          3.35289        0.39630        0.17723
H          2.41106        1.71365        0.95140
C          3.58263       -0.78514       -2.15087
H          3.04369       -1.45790       -2.81806
H          3.74084        0.18339       -2.62549
H          4.53169       -1.22349       -1.84230
H          1.51651       -1.09179        2.28921
H          0.24251       -0.75827        3.46696
H          0.29659       -3.14858        2.71398
H         -1.27204       -2.36555        2.38592
H          0.83645       -2.44078        0.30930
H         -0.26891       -3.68554        0.52153
H          0.13324       -0.13074        0.58650
H         -1.06105        0.21358        1.62336
C          0.43256       -1.00739        2.41863
C         -0.20771       -2.36907        2.13724
N         -0.05008        0.07350        1.57109
N         -0.10570       -2.69501        0.68757
H          1.41010        4.09374        0.15144
H          1.66459        2.66489       -0.87847
H         -0.65199        3.53079       -1.10327
H         -0.58792        1.87686       -0.51255
H         -1.45338        4.17703        0.99064
H         -1.93559        2.60289        1.03022
H          1.69007        2.84436        1.99217
H          0.82805        1.50371        1.44210
C          1.12212        3.05247       -0.01477
C         -0.37879        2.91220       -0.23665
N          1.55405        2.25682        1.17524
N         -1.12708        3.21813        0.97506
