38
2msa2dma_139.log	Energy: -1003281.2608571
S          0.71347       -1.15334       -0.65891
O         -0.51664       -1.84284       -1.14657
O          0.58593       -0.71436        0.75072
O          1.11796       -0.02315       -1.55055
H          0.51025        1.36414       -0.89947
C          2.02086       -2.35173       -0.75323
H          1.73695       -3.20292       -0.13353
H          2.12458       -2.65247       -1.79596
H          2.93985       -1.88441       -0.38239
S         -3.17794       -0.10653        0.37876
O         -4.61285        0.03423        0.49175
O         -2.37889        1.13112        0.41939
O         -2.88017       -0.88380       -0.95474
H         -1.91640       -1.20880       -1.03849
C         -2.55508       -1.18146        1.65092
H         -2.78688       -0.70557        2.60458
H         -3.06797       -2.13897        1.56143
H         -1.47460       -1.28192        1.51785
N          0.04337        2.13177       -0.34906
C         -0.32072        3.25279       -1.23705
C          0.91236        2.49338        0.79036
H         -0.82892        1.69276        0.00952
H          0.58464        3.67809       -1.67279
H         -0.96935        2.87350       -2.02649
H         -0.85253        4.01279       -0.66272
H          1.84039        2.92443        0.41045
H          0.39557        3.21497        1.42511
H          1.12498        1.57831        1.34340
N          4.49828       -0.38922        0.61482
C          3.81299       -0.25141        1.89230
C          4.26484        0.73713       -0.27625
H          5.49365       -0.50274        0.76911
H          2.73175       -0.31658        1.73208
H          4.10106       -1.07183        2.55513
H          4.03315        0.70287        2.40464
H          3.21588        0.74012       -0.59042
H          4.49631        1.71449        0.18638
H          4.87342        0.62794       -1.17780
