35
2msa1ma1dma_238.log	Energy: -978616.8855532
S          0.93255        1.32771        0.74076
O          1.01031        0.15010        1.63064
O         -0.08155        2.31451        1.08638
O          0.76197        0.84803       -0.74105
H         -0.13541        0.29749       -0.85669
C          2.53893        2.06317        0.65885
H          2.78750        2.38334        1.67126
H          3.23167        1.30079        0.28237
H          2.47899        2.91859       -0.01415
S         -2.72441       -0.11736       -0.81920
O         -3.56365       -0.72850       -1.83750
O         -1.26684       -0.52872       -0.92932
O         -3.17170       -0.34646        0.59066
H         -2.05113       -0.97171        1.50215
C         -2.73895        1.65032       -1.05400
H         -2.39024        1.85780       -2.06634
H         -3.76846        1.98729       -0.92996
H         -2.08619        2.11146       -0.31031
N         -1.23752       -1.43878        2.01515
H         -0.42238       -0.79672        1.94670
C         -0.92019       -2.73381        1.36760
H         -0.05128       -3.18411        1.84783
H         -1.78337       -3.39474        1.44437
H         -0.71392       -2.52732        0.31769
H         -1.48384       -1.55017        2.99592
N          3.58367       -0.62868       -0.90184
C          3.46654       -1.74615        0.02295
C          4.57836       -0.85499       -1.93820
H          2.67839       -0.44597       -1.32443
H          4.40905       -1.86438        0.56906
H          2.67766       -1.53362        0.74910
H          3.24630       -2.70636       -0.47577
H          5.57219       -0.91438       -1.48128
H          4.41462       -1.78647       -2.50711
H          4.58009       -0.01702       -2.64024
