30
2msa1eda_145.log	Energy: -953184.7665580
S         -0.39675        1.39708       -0.02150
O          0.82498        2.15749       -0.33644
O         -0.46815        0.82534        1.31386
O         -0.56856        0.26829       -1.12880
H          0.26242       -0.28203       -1.12469
C         -1.82453        2.37192       -0.36914
H         -1.76994        3.23885        0.29090
H         -1.78698        2.67356       -1.41539
H         -2.69549        1.74610       -0.12616
S          2.91036       -0.67513       -0.05102
O          4.15233       -1.35432       -0.32450
O          1.72992       -1.01645       -0.86120
O          3.18320        0.88238       -0.17924
H          2.33675        1.40097       -0.25249
C          2.46662       -0.87958        1.65823
H          2.30061       -1.94607        1.81563
H          3.29949       -0.52472        2.26503
H          1.55211       -0.31506        1.85391
H         -4.87770       -1.72116        0.76587
H         -5.23394       -0.46519       -0.42973
H         -3.96434       -2.23598       -1.50459
H         -2.95957       -0.78010       -1.40935
H         -2.65668       -3.17032        0.23431
H         -1.51930       -2.33039       -0.59454
H         -4.33399        0.41844        1.69746
H         -2.90905       -0.31265        1.34412
C         -4.42475       -0.92935        0.14557
C         -3.42698       -1.56973       -0.81337
N         -3.74750        0.09770        0.93466
N         -2.37168       -2.24154       -0.05568
