40
2msa1dma1eda_84.log	Energy: -1038031.5143303
S          2.84982       -0.47543       -0.18619
O          3.06401        0.60340       -1.16379
O          2.76992       -1.84114       -0.73745
O          1.65704       -0.18747        0.69934
C          4.25685       -0.45218        0.91798
H          5.14763       -0.66717        0.32692
H          4.33102        0.53776        1.36976
H          4.11213       -1.21542        1.68302
S         -3.14834       -0.01448        0.17430
O         -3.16740        1.15876        1.06193
O         -2.79585       -1.29862        0.83327
O         -2.27605        0.22911       -1.02914
C         -4.79923       -0.23697       -0.46385
H         -5.45886       -0.44785        0.37824
H         -5.09942        0.68299       -0.96562
H         -4.78888       -1.07286       -1.16335
N         -0.23906       -2.10459        0.17062
C          0.26574       -3.25881        0.94165
C         -0.31391       -2.35042       -1.28870
H         -1.18476       -1.82190        0.50738
H          1.27343       -3.48753        0.59182
H          0.29058       -2.99062        1.99813
H         -0.39939       -4.11111        0.79292
H          0.69815       -2.50799       -1.66291
H         -0.94146       -3.22602       -1.46585
H         -0.77118       -1.47482       -1.74946
H          0.41272       -1.30367        0.34869
H          0.83836        1.51646       -1.17142
H          0.38560        3.05042       -1.94204
H          2.44078        3.10062       -0.41076
H          1.20487        4.30731        0.02051
H          1.54589        1.70213        1.34405
H          1.65635        3.21198        2.03433
H         -1.42193        1.58600       -0.69509
H         -0.68700        2.28861        0.66227
C          0.47567        2.52876       -0.98843
C          1.42551        3.23374       -0.01913
N         -0.86359        2.41389       -0.35113
N          1.20938        2.66673        1.30881
H         -1.43242        3.25213       -0.44973
