42
2msa2eda_280.log	Energy: -1072757.2355969
S         -2.37014       -1.04346       -0.47412
O         -2.94257       -2.36650       -0.23988
O         -1.50913       -0.54642        0.65143
O         -3.37383        0.02430       -0.80570
H         -2.93746        1.44753       -0.44101
C         -1.32546       -1.14200       -1.91836
H         -0.62370       -1.96891       -1.80437
H         -1.97826       -1.32089       -2.77340
H         -0.77381       -0.20664       -2.01688
S          2.50459        0.88011       -0.33302
O          2.42619        2.34549       -0.20300
O          1.33102        0.27122       -1.00744
O          2.78609        0.18066        0.96465
H          1.55555       -0.78953        1.41825
C          3.92521        0.53754       -1.36086
H          3.76622        1.01725       -2.32699
H          4.80837        0.94705       -0.87017
H          4.01649       -0.54236       -1.48155
H         -2.50390        3.43498        1.73150
H         -2.50844        1.64642        1.80577
H         -0.16815        2.66286        2.03587
H         -0.35255        1.52530        0.68892
H         -0.19057        4.42279        0.45652
H          0.62796        3.24715       -0.33259
H         -3.65709        2.94846       -0.17824
H         -2.06892        2.94708       -0.72200
C         -2.16675        2.51604        1.24341
C         -0.64817        2.50964        1.06127
N         -2.76475        2.46477       -0.12056
N         -0.28582        3.49786        0.04893
H         -0.31256       -3.20299        0.10949
H          0.89950       -4.42686        0.41976
H          0.24775       -3.26822        2.48271
H          1.97484       -2.99999        2.14341
H         -0.13619       -1.06209        1.32019
H          0.65376       -1.00293        2.79540
H          1.42003       -1.78474       -0.81466
H          2.56071       -2.92761       -0.48004
C          0.74065       -3.34390        0.37699
C          0.95749       -2.80205        1.79346
N          1.57467       -2.78222       -0.66582
N          0.74579       -1.33059        1.83638
