30
2msa1eda_171.log	Energy: -953177.6145565
S         -2.66250        0.09219       -0.14638
O         -1.59601        1.08836       -0.04085
O         -2.73131       -0.72668       -1.34172
O         -4.06909        0.88761       -0.00873
H         -4.46918        0.94756       -0.88914
C         -2.69405       -0.87450        1.32638
H         -2.79171       -0.19283        2.17182
H         -3.53757       -1.56144        1.26284
H         -1.72323       -1.40524        1.35171
S          1.92551        1.51055        0.06101
O          3.24295        1.36185       -0.51732
O          1.57076        0.78052        1.27210
O          0.88726        1.13903       -1.09337
H         -0.02595        1.04408       -0.72807
C          1.59075        3.23687        0.34088
H          2.27821        3.57663        1.11626
H          1.76540        3.77207       -0.59216
H          0.55625        3.34025        0.67013
H          0.05228       -3.40497       -0.47235
H         -0.07022       -1.72832       -1.00057
H          1.99919       -2.85617       -1.78883
H          2.33362       -1.40468       -0.84413
H          3.60991       -3.55759       -0.33079
H          3.00207       -2.76447        0.94926
H          0.64454       -2.70763        1.66953
H          0.73896       -1.12664        1.24742
C          0.48451       -2.40714       -0.34232
C          1.94956       -2.43345       -0.77941
N          0.25841       -2.00358        1.04785
N          2.74276       -3.28079        0.11485
