38
2msa2dma_149.log	Energy: -1003281.8172949
S          2.85203       -0.00091        0.22757
O          2.49099       -1.06262       -0.75695
O          2.00895       -0.04100        1.44141
O          2.87774        1.35474       -0.39505
H          1.30336        1.91602       -0.45147
C          4.53001       -0.34688        0.71161
H          4.54963       -1.33477        1.17189
H          5.15170       -0.32470       -0.18335
H          4.84288        0.41818        1.42206
S         -0.95446       -1.64525       -0.46211
O         -2.08832       -2.47947       -0.80192
O         -0.85041       -0.34074       -1.14480
O          0.35381       -2.46749       -0.72681
H          1.19334       -1.88439       -0.73128
C         -0.93421       -1.33117        1.28581
H         -1.73679       -0.61375        1.48327
H         -1.10657       -2.27937        1.79529
H          0.04411       -0.91629        1.54459
N         -3.63773        0.87603        0.94753
C         -4.38125       -0.38187        0.95803
C         -3.67028        1.51778       -0.36131
H         -4.04109        1.50109        1.63768
H         -3.92602       -1.08258        0.25142
H         -4.33397       -0.82986        1.95464
H         -5.44061       -0.25997        0.67883
H         -3.07727        0.92481       -1.06511
H         -4.68739        1.62936       -0.77265
H         -3.22574        2.51631       -0.28941
N          0.25809        2.03569       -0.42858
C         -0.17295        3.01595       -1.44324
C         -0.17266        2.33185        0.95754
H         -0.11888        1.09972       -0.68872
H          0.26648        3.98839       -1.21614
H          0.16864        2.67674       -2.42124
H         -1.26128        3.08738       -1.43978
H          0.05573        3.37335        1.19015
H         -1.24381        2.13886        1.05017
H          0.38589        1.67055        1.62147
