35
2msa1ma1dma_114.log	Energy: -978624.0326790
S          0.32681        2.31295       -0.09764
O          0.65877        3.70201        0.17725
O         -0.69506        1.75024        0.88056
O          1.48309        1.37235       -0.14504
H          1.10503        0.15883        1.08080
C         -0.45123        2.22300       -1.70138
H         -1.33455        2.86264       -1.68559
H          0.26968        2.59109       -2.43209
H         -0.72059        1.18532       -1.90727
S         -2.16954       -1.06994       -0.10110
O         -1.47050       -1.75495        0.99994
O         -1.45964       -1.03784       -1.37766
O         -2.60749        0.35346        0.33219
H         -1.75747        0.99909        0.55155
C         -3.74977       -1.84821       -0.31507
H         -3.55979       -2.88107       -0.60786
H         -4.28421       -1.80455        0.63330
H         -4.28894       -1.31536       -1.09777
N          1.14571       -0.78333        1.52051
H          0.22057       -1.22324        1.38489
C          1.51805       -0.69834        2.94341
H          1.57512       -1.69985        3.37044
H          2.48642       -0.20530        3.03082
H          0.76652       -0.11372        3.47381
H          1.86192       -1.26198        0.91072
N          2.84395       -1.34378       -0.60840
C          1.91646       -1.86895       -1.61173
C          4.17670       -1.92793       -0.70713
H          2.89753       -0.33301       -0.72862
H          1.75979       -2.93833       -1.43636
H          0.95053       -1.36503       -1.52521
H          2.29012       -1.74117       -2.63866
H          4.11922       -3.00022       -0.49449
H          4.62559       -1.80391       -1.70463
H          4.83922       -1.46820        0.03082
