42
2msa2eda_364.log	Energy: -1072754.9753015
S          1.89564       -1.36563       -0.79853
O          3.06793       -2.21659       -0.59844
O          2.18103       -0.02110       -1.37450
O          1.05856       -1.20612        0.45149
H          0.97489        0.41204        0.65990
C          0.81960       -2.18147       -1.96746
H          0.60499       -3.18066       -1.58456
H         -0.09431       -1.59189       -2.06340
H          1.34946       -2.25207       -2.91798
S         -2.08322        1.10856       -1.13359
O         -1.69114        1.57404        0.23628
O         -3.39562        1.58358       -1.55953
O         -1.91131       -0.38316       -1.25048
H         -2.24330       -1.35492       -0.12828
C         -0.85240        1.75242       -2.25747
H         -0.81063        2.83590       -2.13710
H          0.11118        1.28152       -2.04305
H         -1.16869        1.49993       -3.27001
H         -2.00270       -2.88755        2.46662
H         -0.65101       -2.44139        1.36242
H         -1.01624       -0.86611        3.39307
H         -0.87336       -0.14320        1.78572
H         -3.13394        0.01477        3.47606
H         -2.84695        0.74447        2.01519
H         -2.87324       -2.89858        0.25717
H         -3.41035       -1.51941        1.06342
C         -1.61770       -2.13867        1.76884
C         -1.51007       -0.75577        2.42313
N         -2.59579       -2.00656        0.65779
N         -2.83094       -0.13644        2.52369
H          1.76867        2.96081        1.99961
H          1.37592        1.41727        2.80538
H          3.86868        1.80441        2.49187
H          3.28824        0.31082        1.74722
H          4.68391        2.20887        0.42974
H          3.63119        1.19577       -0.33266
H          0.01835        1.78723        0.71722
H          1.48095        1.77965       -0.10913
C          1.81194        1.87271        1.91266
C          3.25115        1.40638        1.68166
N          1.00356        1.46781        0.74336
N          3.72014        1.90616        0.39271
