42
2msa2eda_243.log	Energy: -1072753.0719209
S         -0.70871        0.94757        2.05274
O         -1.52086        2.02178        2.61043
O         -0.22178        1.26198        0.64687
O         -1.34372       -0.39848        2.04907
H         -1.50685       -0.97686        0.45293
C          0.77843        0.79623        3.02678
H          1.27581        1.76682        3.03661
H          0.48247        0.51167        4.03695
H          1.41565        0.03499        2.57280
S          2.62006       -0.04346       -0.56943
O          1.99078       -0.51175       -1.80168
O          2.53545       -0.92582        0.59349
O          2.10720        1.39268       -0.19638
H          1.14426        1.35654        0.20844
C          4.32400        0.33280       -0.90163
H          4.77553        0.72744        0.00791
H          4.80181       -0.60090       -1.19940
H          4.36306        1.06277       -1.70963
H         -1.67893        1.90030       -3.69840
H         -2.54720        0.35792       -3.52654
H         -3.72127        2.17830       -2.38919
H         -3.20394        0.95385       -1.22579
H         -2.75886        3.45820       -0.77414
H         -1.53370        2.43084       -0.46620
H         -0.16922        0.09128       -3.08801
H         -0.25299        1.14803       -1.86967
C         -1.96955        1.11723       -2.98594
C         -2.84025        1.74680       -1.90284
N         -0.80106        0.46145       -2.38417
N         -2.11812        2.80666       -1.21061
H         -0.06795       -2.84271       -1.32116
H          0.53233       -2.04210        0.13829
H         -0.12663       -4.40139        0.64811
H         -1.12584       -3.23621        1.52617
H         -1.96255       -4.79623       -0.80352
H         -2.73852       -4.57208        0.61848
H         -1.16089       -0.73098       -1.21455
H         -2.27065       -1.94458       -0.68859
C         -0.34591       -2.49647       -0.32152
C         -0.89958       -3.63113        0.53091
N         -1.39495       -1.46207       -0.46591
N         -2.14386       -4.12271       -0.06702
