35
2msa1ma1dma_122.log	Energy: -978623.8673428
S         -1.92821       -0.47580       -0.52049
O         -1.94774       -0.40126        0.95317
O         -1.46694       -1.80449       -1.01789
O         -1.16461        0.64785       -1.14607
H          0.33856        0.58051       -1.33077
C         -3.59787       -0.27522       -1.10306
H         -4.20194       -1.07632       -0.67696
H         -3.95560        0.69848       -0.76701
H         -3.58892       -0.33164       -2.19135
S          2.26464        0.85103       -0.29098
O          1.34253        0.54204       -1.52921
O          3.63404        0.68066       -0.73145
O          1.81047        0.03857        0.85458
H          1.03800       -1.46741        0.73380
C          1.93733        2.54665        0.10228
H          2.10145        3.13176       -0.80285
H          0.90890        2.62839        0.48656
H          2.65275        2.82933        0.87619
N         -0.97929        2.52354        1.58024
H         -1.13486        1.51785        1.53546
C         -2.04773        3.21340        0.86068
H         -3.05934        3.00514        1.24175
H         -1.88554        4.29492        0.90647
H         -2.01016        2.91245       -0.18978
H         -0.98686        2.78201        2.56123
N          0.62339       -2.41306        0.58969
C          0.04428       -2.88821        1.86424
C          1.65751       -3.28938        0.00413
H         -0.16080       -2.26695       -0.09618
H          0.82970       -2.94523        2.61944
H         -0.72545       -2.17553        2.16265
H         -0.40046       -3.87265        1.70998
H          2.47953       -3.40079        0.71274
H          1.22011       -4.26345       -0.21936
H          2.02596       -2.82825       -0.91256
