35
2msa1ma1dma_131.log	Energy: -978623.7771069
S          0.35983        1.89481       -0.10549
O         -0.71763        2.17358       -1.06113
O          1.56596        1.24587       -0.69094
O         -0.11048        1.10315        1.08674
C          0.91526        3.45691        0.54991
H          1.30030        4.04923       -0.28037
H          0.06012        3.95124        1.01120
H          1.69600        3.26622        1.28607
S         -2.82366       -0.84496        0.06327
O         -3.91040       -1.70622        0.47495
O         -1.61992       -1.47802       -0.50446
O         -2.40790        0.02979        1.30354
H         -1.50718        0.49519        1.17777
C         -3.40486        0.34535       -1.11912
H         -3.68842       -0.20581       -2.01657
H         -4.26963        0.84646       -0.68409
H         -2.59252        1.04872       -1.32113
N          4.71906       -1.53166        0.15638
H          5.15864       -1.67609        1.05980
C          4.48559       -0.10307       -0.07793
H          5.39121        0.51773       -0.04229
H          4.01530        0.03696       -1.05429
H          3.77976        0.27977        0.66378
H          5.36306       -1.90315       -0.53455
N          1.10712       -1.41659       -0.16223
C          1.40395       -1.76931        1.24379
C          1.64707       -2.37263       -1.15231
H          0.07625       -1.35657       -0.27302
H          2.48344       -1.88769        1.34825
H          1.03061       -0.96282        1.87482
H          0.89547       -2.70362        1.48733
H          2.72306       -2.46163       -0.99072
H          1.15881       -3.33875       -1.01521
H          1.43386       -1.99323       -2.15188
H          1.45086       -0.45071       -0.36409
