26
2msa2a_21.log	Energy: -904649.5916334
S          2.07987       -0.27865        0.16284
O          1.25805       -0.54016       -1.07214
O          1.48572       -0.85705        1.37310
O          2.39365        1.17641        0.25523
H          1.22864        2.03067       -0.57205
C          3.63845       -1.09618       -0.11486
H          4.08433       -0.69088       -1.02293
H          4.27487       -0.90255        0.74886
H          3.44604       -2.16395       -0.22035
S         -2.04087       -0.80003       -0.13676
O         -3.38860       -1.16731       -0.51518
O         -1.66364        0.62440       -0.21005
O         -1.03968       -1.62785       -1.02031
H         -0.09720       -1.22748       -1.00744
C         -1.70344       -1.35543        1.51664
H         -0.64782       -1.16504        1.72872
H         -2.35783       -0.79521        2.18567
H         -1.93061       -2.42071        1.56040
N         -1.45154        3.46713        0.76787
H         -2.13700        4.19958        0.61705
H         -1.06895        3.58939        1.70023
H         -1.93493        2.56888        0.74571
N          0.36163        2.35879       -1.07388
H         -0.20818        2.99600       -0.45968
H         -0.21634        1.51859       -1.20928
H          0.59642        2.78217       -1.96595
