32
2msa2ma_150.log	Energy: -953958.2150382
S          2.05884       -0.99723        0.07837
O          1.14633       -1.13795        1.24405
O          2.89468        0.21955        0.13182
O          1.31439       -1.11297       -1.21669
C          3.15984       -2.40097        0.12975
H          3.70801       -2.36205        1.07139
H          2.56216       -3.31068        0.07005
H          3.84274       -2.33098       -0.71704
S         -2.80478       -0.33430       -0.16667
O         -2.17683        0.61292       -1.06899
O         -4.18126       -0.74588       -0.37738
O         -2.74026        0.35727        1.31049
H         -3.57838        0.18072        1.76082
C         -1.75366       -1.74260        0.04637
H         -1.60161       -2.17627       -0.94303
H         -0.79317       -1.42501        0.46659
H         -2.26728       -2.44251        0.70583
N          0.46111        1.49541       -1.44416
H          0.28779        1.64758       -0.38854
H          0.70306        0.48056       -1.52728
C          1.57358        2.33514       -1.92824
H          1.72770        2.17200       -2.99554
H          1.34754        3.38631       -1.74367
H          2.46670        2.03686       -1.37771
H         -0.42248        1.65398       -1.92369
N          0.18492        1.71848        1.29131
H         -0.73631        1.94439        1.65328
C          1.22390        2.58269        1.86229
H          1.25154        2.56305        2.95866
H          2.19094        2.23928        1.48709
H          1.06508        3.61631        1.53988
H          0.38038        0.74485        1.53814
