37
2msa1ma1eda_114.log	Energy: -1013363.1942006
S          2.60228       -1.17069       -0.12590
O          2.15608       -0.58084        1.15697
O          3.86280       -1.88429       -0.11709
O          2.63017       -0.02676       -1.19210
H          2.34512        0.92227       -0.77935
C          1.32090       -2.24317       -0.72301
H          1.21905       -3.05216        0.00197
H          0.38730       -1.68114       -0.82824
H          1.64623       -2.63617       -1.68669
S         -2.59809       -0.65032       -0.37757
O         -1.41960       -0.61056       -1.27387
O         -3.18495        0.68805       -0.12885
O         -2.29497       -1.37624        0.89816
H         -1.11279       -0.47709        1.62480
C         -3.85558       -1.61797       -1.19180
H         -4.09667       -1.12779       -2.13519
H         -3.45766       -2.61770       -1.36612
H         -4.72954       -1.65642       -0.54153
N         -0.37733        0.19868        1.96936
H          0.55257       -0.19286        1.73708
C         -0.53119        0.46767        3.41068
H          0.22928        1.17701        3.73946
H         -1.52396        0.88074        3.59010
H         -0.42131       -0.46446        3.96437
H         -0.49036        1.07072        1.39871
H          1.08649        4.10841       -0.70993
H          1.55712        3.09397       -2.08238
H         -0.85314        3.04374       -1.85075
H         -0.22666        1.43768       -1.47468
H         -1.04613        3.41376        0.52894
H         -1.81397        2.02512        0.11082
H          2.91288        2.72881       -0.06941
H          1.59818        2.11978        0.68603
C          1.13586        3.07217       -1.07350
C         -0.26127        2.47345       -1.12263
N          2.02554        2.25864       -0.22691
N         -0.88789        2.46156        0.20800
