35
2msa1ma1dma_307.log	Energy: -978613.2638258
S         -1.87023       -1.75101       -0.15666
O         -2.28744       -3.13652       -0.23060
O         -2.56417       -0.73632       -0.93864
O         -0.32121       -1.72305       -0.53670
H         -0.00255       -0.78628       -0.75483
C         -1.86088       -1.23211        1.54654
H         -2.90250       -1.13930        1.85699
H         -1.35404       -1.99990        2.13151
H         -1.33689       -0.27582        1.61356
S          1.08840        1.47123        0.09656
O          0.31089        1.17341        1.30788
O          0.80691        0.51598       -1.02606
O          2.57321        1.50537        0.34921
H          3.13669        0.10551        0.25806
C          0.64216        3.08401       -0.48532
H         -0.43361        3.05660       -0.70798
H          0.87161        3.79678        0.30745
H          1.22880        3.29447       -1.37974
N         -2.54248        2.37427       -0.77161
H         -3.28713        2.75237       -1.34738
C         -2.91249        2.42890        0.64191
H         -3.79592        1.82698        0.90323
H         -2.06711        2.07944        1.24222
H         -3.11089        3.46653        0.92832
H         -2.42521        1.40285       -1.05185
N          3.47152       -0.92766        0.20617
C          3.42759       -1.36879       -1.20982
C          2.61412       -1.73403        1.11279
H          4.43201       -0.94051        0.54590
H          2.41875       -1.18766       -1.58074
H          4.13333       -0.76959       -1.78515
H          3.68149       -2.42794       -1.27650
H          1.60697       -1.77133        0.69516
H          3.01787       -2.74449        1.19650
H          2.58596       -1.24714        2.08767
