32
2msa2ma_207.log	Energy: -953957.5658609
S          1.30503        1.25014       -0.08171
O          0.41320        2.42462       -0.00049
O          1.24774        0.51171       -1.33863
O          1.03741        0.30621        1.13787
H          0.04987       -0.05010        1.11481
C          2.96320        1.75297        0.26380
H          3.25566        2.43312       -0.53721
H          2.96975        2.26216        1.22733
H          3.58946        0.85025        0.27249
S         -1.95072       -1.41479        0.07452
O         -2.82856       -2.37389        0.72695
O         -1.32526       -0.42493        1.03697
O         -2.57589       -0.64785       -1.04879
H         -2.36707        0.91124       -0.89946
C         -0.58267       -2.30397       -0.64894
H         -0.07753       -2.85114        0.14834
H         -0.99411       -2.99793       -1.38244
H          0.09050       -1.58741       -1.12328
N         -2.25921        1.94903       -0.66835
H         -1.24979        2.13581       -0.50235
C         -3.03911        2.26255        0.55290
H         -2.89283        3.30794        0.82449
H         -4.09337        2.05933        0.36638
H         -2.67575        1.60662        1.34346
H         -2.56286        2.49865       -1.46874
N          4.43528       -1.22472        0.18458
H          5.14806       -1.33547       -0.52882
C          3.25078       -2.02452       -0.14175
H          3.44682       -3.09974       -0.25721
H          2.50437       -1.88722        0.64448
H          2.80991       -1.64625       -1.06725
H          4.84506       -1.53472        1.05935
