37
2msa1ma1eda_540.log	Energy: -1013348.6994096
S          1.31326       -1.62091       -0.00043
O          0.30737       -2.65897       -0.22857
O          1.26255       -0.91865        1.28097
O          1.29202       -0.57666       -1.18235
H          0.46949        0.04140       -1.11085
C          2.92199       -2.32160       -0.24500
H          3.01773       -3.12485        0.48689
H          2.97061       -2.71714       -1.25931
H          3.66358       -1.53698       -0.05978
S         -0.86643        2.14779       -0.16550
O         -1.17347        3.31842       -0.97603
O         -0.75732        0.87008       -0.95748
O         -1.80842        1.93015        0.98147
H         -2.59762        0.62609        1.06517
C          0.73346        2.38597        0.58676
H          1.45820        2.55997       -0.20924
H          0.66739        3.25804        1.23775
H          0.98114        1.48686        1.15403
N          4.17778        0.50919        0.79033
H          3.27599        0.47851        1.25814
C          4.14702        1.40568       -0.36295
H          3.93183        2.45779       -0.12304
H          5.11284        1.36882       -0.87489
H          3.38726        1.05254       -1.06598
H          4.86456        0.81271        1.47126
H         -4.84286       -0.95624       -0.08549
H         -3.87282        0.34148       -0.83759
H         -3.31189       -2.02993       -1.68572
H         -1.94470       -1.11003       -1.04604
H         -3.19133       -3.41276        0.19853
H         -1.62401       -2.88128        0.23013
H         -4.04633        0.13288        1.76843
H         -2.88129       -1.04883        1.49019
C         -3.83532       -0.55006       -0.20945
C         -2.87761       -1.60732       -0.77312
N         -3.31503       -0.17510        1.13297
N         -2.59935       -2.59413        0.26679
