38
2msa2dma_20.log	Energy: -1003297.0457261
S          0.00101       -2.09945       -0.27239
O         -1.24468       -1.50501       -0.85056
O          0.00211       -2.15171        1.19710
O          1.24515       -1.50341       -0.85224
H          2.02877       -0.28368       -0.03216
C          0.00158       -3.78635       -0.86516
H         -0.89388       -4.27868       -0.48523
H          0.00047       -3.76986       -1.95514
H          0.89842       -4.27754       -0.48700
S         -0.00102        2.06521       -0.35015
O          1.26451        2.83589       -0.25145
O         -1.26622        2.83623       -0.25001
O         -0.00062        0.92711        0.60589
H         -2.02708       -0.28369       -0.03142
C         -0.00226        1.35696       -1.99428
H         -0.00165        2.17560       -2.71450
H          0.88001        0.72587       -2.10585
H         -0.88609        0.72796       -2.10541
N          2.68235        0.37723        0.46716
C          4.02565        0.27321       -0.13112
C          2.61840        0.04202        1.90650
H          2.29644        1.32898        0.31714
H          4.38200       -0.75296       -0.03129
H          3.95927        0.53461       -1.18737
H          4.70808        0.95721        0.37622
H          2.94470       -0.98987        2.04156
H          3.25931        0.72407        2.46807
H          1.57844        0.13981        2.21283
N         -2.68217        0.37567        0.46805
C         -2.61906        0.03810        1.90685
C         -4.02471        0.27068       -0.13175
H         -2.29727        1.32810        0.32000
H         -2.94343       -0.99468        2.03983
H         -1.57953        0.13715        2.21434
H         -3.26177        0.71795        2.46906
H         -4.37951       -0.75622       -0.03406
H         -4.70869        0.95282        0.37604
H         -3.95763        0.53399       -1.18747
