40
2msa1dma1eda_446.log	Energy: -1038010.9360420
S          1.04262        0.05615       -1.08470
O          2.00226        0.64443       -2.01040
O         -0.39618        0.33287       -1.47803
O          1.23590        0.47288        0.34370
H         -0.13475        0.96014        1.06261
C          1.22536       -1.71385       -1.09960
H          1.06988       -2.06255       -2.12114
H          2.24007       -1.92553       -0.74813
H          0.48558       -2.13611       -0.41679
S         -2.69794       -1.23220        0.27674
O         -3.29361        0.07862        0.55271
O         -1.61361       -1.63605        1.16926
O         -2.24245       -1.32176       -1.21997
H         -1.45734       -0.65264       -1.38547
C         -3.97684       -2.46105        0.27442
H         -4.73139       -2.16879       -0.45502
H         -3.52923       -3.42109        0.01942
H         -4.39714       -2.48414        1.28014
N          3.97017       -1.00916        0.67627
C          4.90000       -0.26982       -0.16241
C          4.58969       -1.55582        1.86865
H          3.19065       -0.40653        0.92639
H          5.65021       -0.95767       -0.56978
H          4.35719        0.18064       -0.99718
H          5.43779        0.52963        0.37922
H          5.33479       -2.30715        1.58303
H          5.10355       -0.79851        2.48904
H          3.83480       -2.05236        2.48534
H         -1.43784        3.45774        2.02738
H          0.29519        3.04162        2.17893
H         -0.25242        4.53678        0.19239
H          0.58098        3.04240       -0.23685
H         -1.83569        3.85095       -1.26210
H         -1.25447        2.30737       -1.32120
H         -1.16735        1.08205        2.39078
H         -1.77718        1.36319        0.88614
C         -0.59904        2.93619        1.56049
C         -0.36521        3.45007        0.13749
N         -0.94639        1.49435        1.48689
N         -1.49564        3.07981       -0.70491
