35
2msa1ma1dma_154.log	Energy: -978622.9805966
S          2.89667        0.49488       -0.35967
O          3.95783        1.27665       -0.96063
O          3.07038       -0.93706       -0.14743
O          1.59040        0.72990       -1.24096
H          0.92642       -0.01963       -1.10893
C          2.44204        1.23479        1.19556
H          3.28994        1.11031        1.87046
H          2.24507        2.29305        1.02228
H          1.56066        0.71067        1.57179
S         -0.52350       -1.63515        0.43467
O         -0.20510       -0.66621        1.50706
O         -0.25358       -1.05012       -0.93071
O         -1.91341       -2.15368        0.49079
H         -2.90104       -1.01345       -0.58049
C          0.58720       -3.00951        0.61210
H          1.60090       -2.62010        0.49937
H          0.43104       -3.44105        1.60096
H          0.35517       -3.73306       -0.16928
N         -2.87818       -0.14922       -1.15493
H         -2.55456        0.63417       -0.45672
C         -4.13745        0.16166       -1.85019
H         -4.02251        1.09046       -2.40994
H         -4.40370       -0.64514       -2.53360
H         -4.92911        0.28440       -1.11054
H         -2.07957       -0.30699       -1.77612
N         -1.92215        1.62728        0.67146
C         -2.91913        2.18778        1.58077
C         -1.05180        2.64075        0.07329
H         -1.33793        0.95436        1.17726
H         -3.60448        2.83458        1.02269
H         -3.49485        1.37707        2.03464
H         -2.46611        2.78452        2.38471
H         -1.63765        3.28621       -0.58986
H         -0.57505        3.27773        0.83199
H         -0.26838        2.15107       -0.51040
