32
2msa2ma_219.log	Energy: -953954.6017885
S          2.42129       -0.37911        0.13946
O          3.81769       -0.64402       -0.16586
O          1.48165       -0.81051       -0.98023
O          2.09828        1.03867        0.48575
H          0.98406        1.58470       -0.54089
C          1.95673       -1.35291        1.55838
H          2.14728       -2.40147        1.32664
H          2.58328       -1.02878        2.38985
H          0.90081       -1.18516        1.77768
S         -1.70486       -1.22087       -0.14532
O         -1.88715        0.05324       -0.87406
O         -1.45224       -1.10776        1.28318
O         -0.61400       -2.07743       -0.85286
H          0.32559       -1.57142       -0.87465
C         -3.14243       -2.21782       -0.43039
H         -3.98336       -1.69708        0.02859
H         -3.28465       -2.32350       -1.50513
H         -2.98142       -3.18505        0.04501
N          0.30338        1.74162       -1.34269
H          0.74087        1.27416       -2.13735
C          0.01855        3.16744       -1.59597
H         -0.65925        3.26478       -2.44416
H         -0.44825        3.58758       -0.70548
H          0.95322        3.68900       -1.80021
H         -0.55018        1.19359       -1.12635
N         -2.37452        2.47801        1.13130
H         -2.45759        1.82261        0.36248
C         -1.14085        2.28975        1.88338
H         -0.20980        2.55336        1.35410
H         -1.17529        2.88500        2.80048
H         -1.06177        1.23888        2.16954
H         -2.49442        3.42471        0.79356
