38
2msa2dma_05.log	Energy: -1003304.9375424
S         -2.69461        0.15346       -0.13056
O         -2.10424       -0.01715        1.21626
O         -2.22700       -0.90751       -1.06820
O         -2.51168        1.52641       -0.67672
C         -4.45876       -0.06161        0.02450
H         -4.64677       -1.06070        0.41813
H         -4.83322        0.69840        0.71044
H         -4.90568        0.05567       -0.96275
S          2.65723       -0.05990        0.11710
O          2.30717       -1.22393        0.97685
O          2.97124        1.17818        0.84431
O          1.59472        0.14175       -0.92431
C          4.13002       -0.53025       -0.77596
H          4.39538        0.28237       -1.45229
H          4.92324       -0.69690       -0.04661
H          3.92396       -1.44453       -1.33300
N         -0.09542       -2.22851        0.04670
C         -0.75072       -3.01112        1.11340
C          0.43182       -3.03009       -1.07483
H         -0.79859       -1.56224       -0.34334
H         -0.01822       -3.67547        1.57463
H         -1.15033       -2.30847        1.84446
H         -1.56739       -3.58970        0.67860
H          1.16700       -3.74183       -0.69589
H         -0.39370       -3.55462       -1.55841
H          0.90225       -2.34401       -1.77936
H          0.70328       -1.69659        0.45347
N          0.05763        2.28295       -0.11271
C          0.67233        3.41621       -0.82952
C          0.07311        2.42232        1.36332
H         -0.92822        2.12002       -0.42045
H          1.71680        3.49454       -0.52386
H          0.61429        3.22705       -1.90152
H          0.13643        4.33514       -0.58586
H          1.11012        2.42687        1.70013
H         -0.43711        3.34910        1.63230
H         -0.46501        1.57158        1.78314
H          0.58538        1.42161       -0.38537
