34
2msa1a1eda_200.log	Energy: -988699.5954397
S         -0.91054       -1.70458       -0.14635
O         -1.94899       -2.30893       -0.97969
O         -1.35844       -1.16174        1.15064
O         -0.16148       -0.59973       -0.90297
C          0.33565       -2.93599        0.18282
H          1.13350       -2.47347        0.76709
H         -0.14057       -3.74053        0.74410
H          0.71059       -3.30872       -0.77112
S          2.84151        0.35603        0.18321
O          2.75380       -0.63096        1.24859
O          2.22420        1.66560        0.43256
O          2.30431       -0.23776       -1.17112
H          1.29491       -0.45974       -1.09413
C          4.53858        0.62038       -0.26287
H          5.02671        1.05272        0.61101
H          4.98143       -0.34219       -0.51641
H          4.57230        1.30857       -1.10670
N         -4.28036       -0.60058        0.45023
H         -5.17949       -0.93245        0.78333
H         -3.56726       -0.89605        1.11557
H         -4.06009       -1.11796       -0.39802
H         -1.01237        3.67782       -0.10667
H         -0.47954        2.57602       -1.40345
H         -2.98895        3.03278       -1.47958
H         -2.59932        1.32463       -1.26800
H         -3.85864        3.03016        0.66708
H         -3.84304        1.36448        0.52965
H          0.33037        1.94932        0.86396
H         -1.31843        1.65835        1.24627
C         -1.10277        2.66684       -0.51192
C         -2.56640        2.30415       -0.77772
N         -0.60276        1.71664        0.50809
N         -3.27774        2.22084        0.49094
H         -0.50918        0.77061        0.07537
