37
2msa1ma1eda_103.log	Energy: -1013363.2037325
S         -1.27580        1.73253        0.02027
O         -2.29794        1.22266        0.94022
O         -1.26510        1.06280       -1.30811
O          0.09838        1.70761        0.64458
C         -1.61770        3.45384       -0.28826
H         -2.60996        3.52526       -0.73409
H         -1.58467        3.97895        0.66638
H         -0.85955        3.83752       -0.97105
S          2.83354       -0.24677       -0.20259
O          2.28989       -1.24439       -1.13076
O          2.73206       -0.55300        1.21946
O          2.24455        1.16889       -0.51689
H          1.33248        1.37200       -0.05508
C          4.53167        0.03602       -0.63645
H          5.05402       -0.91101       -0.49846
H          4.57373        0.35293       -1.67812
H          4.93089        0.80171        0.02774
N         -0.15265       -1.01350        2.01189
H          0.72446       -1.40806        2.33925
C         -1.26778       -1.31007        2.91452
H         -1.07184       -1.02505        3.95536
H         -2.14605       -0.76058        2.56805
H         -1.48955       -2.38151        2.88804
H         -0.00140       -0.00650        1.95379
H         -1.46750       -3.01218       -1.87675
H         -1.29436       -3.44151       -0.15416
H         -3.60925       -2.93773       -0.55595
H         -2.94619       -1.59858        0.39273
H         -4.34830       -1.06765       -1.65934
H         -2.91443       -0.28895       -1.60454
H          0.42878       -1.82641       -1.01169
H         -0.76708       -0.68671       -1.12088
C         -1.53001       -2.63470       -0.85392
C         -2.92724       -2.08270       -0.59663
N         -0.50500       -1.57998       -0.66496
N         -3.34532       -1.20823       -1.68527
H         -0.38556       -1.36689        0.39081
