42
2msa2eda_282.log	Energy: -1072756.0958577
S         -1.57315        2.09395        0.31767
O         -2.69670        1.67372       -0.52836
O         -0.43955        2.71984       -0.41062
O         -1.07331        0.97108        1.19433
C         -2.18348        3.33126        1.44670
H         -2.53117        4.17873        0.85544
H         -3.00620        2.89372        2.01238
H         -1.37132        3.62985        2.10936
S         -1.84504       -2.07808       -0.44699
O         -1.91713       -3.51589       -0.29966
O         -0.75704       -1.52396       -1.26782
O         -1.76760       -1.46270        1.00222
H         -1.53906       -0.46580        1.01694
C         -3.37617       -1.44784       -1.08820
H         -3.48789       -1.84396       -2.09822
H         -4.17728       -1.80616       -0.44159
H         -3.31851       -0.35600       -1.08825
H          2.69606       -0.51447       -1.92147
H          1.74357        0.54252       -2.98678
H          3.97624        1.48185       -2.56855
H          2.71908        2.54725       -1.93294
H          4.73168        1.98237       -0.46488
H          3.27940        1.82092        0.25208
H          0.41702       -0.22405       -1.15085
H          1.48187        0.32223        0.01104
C          2.20418        0.45845       -1.99944
C          3.21502        1.57579       -1.78898
N          1.13300        0.50407       -0.98337
N          3.86965        1.44929       -0.48629
H          0.63059        1.41505       -0.95042
H          2.31890       -2.05167       -0.19633
H          2.83647       -3.19955        1.03298
H          0.73933       -1.90945        1.59880
H          2.01397       -1.83441        2.82935
H          0.88155        0.33498        2.08098
H          2.53086        0.32346        2.15263
H          4.78336       -2.09104        0.60217
H          4.08767       -0.61403        0.44574
C          2.73844       -2.13056        0.82083
C          1.74368       -1.53169        1.80984
N          4.04692       -1.49455        0.95921
N          1.72405       -0.06531        1.67391
