43
2msa1eda1tma_221.log	Energy: -1062669.9962780
S         -0.80842        2.37869       -0.09687
O          0.49264        2.31713        0.54986
O         -1.98694        2.16066        0.76654
O         -0.88653        1.43919       -1.33052
H         -0.33228        0.51226       -1.28247
C         -1.02886        3.96278       -0.86929
H         -0.19712        4.12495       -1.55429
H         -1.98042        3.95906       -1.40003
H         -1.03019        4.70936       -0.07487
S          0.20302       -1.79674       -0.38792
O          0.32263       -0.67462       -1.38846
O         -0.90657       -2.71372       -0.68136
O          0.16010       -1.25492        1.00610
H         -1.17560       -0.66279        1.61858
C          1.73795       -2.67216       -0.52894
H          1.80809       -3.05427       -1.54781
H          2.54734       -1.96490       -0.30423
H          1.71139       -3.49285        0.18873
H         -2.47506       -0.47880       -0.58700
H         -4.10263        0.02683       -0.14751
H         -4.07257       -1.22000        1.90155
H         -2.73847       -2.25220        1.33267
H         -2.23156        0.64187        1.64099
H         -2.16224       -0.39177        2.96162
H         -4.43928       -1.65140       -1.69251
H         -3.27583       -2.61337       -1.06049
C         -3.41270       -0.82287       -0.13156
C         -3.15268       -1.24207        1.31450
N         -4.01232       -1.95181       -0.82415
N         -2.13759       -0.34675        1.94597
N          3.79675       -0.18372        0.20400
C          5.22234       -0.40899        0.34742
H          5.40549       -1.13928        1.14203
H          5.63418       -0.80794       -0.58511
H          5.77377        0.51827        0.59875
C          3.51053        0.73284       -0.88795
H          3.90908        0.32676       -1.82327
H          2.42987        0.84814       -0.99481
H          3.95687        1.73232       -0.72316
C          3.20555        0.28391        1.44872
H          2.13278        0.43398        1.31370
H          3.35503       -0.46751        2.23090
H          3.65232        1.23762        1.78928
