30
2msa1eda_119.log	Energy: -953193.5577774
S         -1.90206        1.30697       -0.04295
O         -3.08909        0.86043        0.70861
O         -1.93996        1.00844       -1.48685
O         -0.62240        0.77409        0.56883
C         -1.79731        3.07936        0.14323
H         -0.91492        3.43059       -0.39214
H         -2.70244        3.51182       -0.28396
H         -1.72840        3.30902        1.20681
S          2.90118        0.00418       -0.07748
O          2.19738       -1.26840       -0.06596
O          2.92928        0.80196       -1.29039
O          4.44596       -0.30908        0.32282
H          5.01165        0.04242       -0.37987
C          2.37848        0.96875        1.31165
H          2.95037        1.89639        1.31470
H          1.30600        1.14924        1.17119
H          2.56158        0.38637        2.21480
H         -0.82130       -3.57843       -0.41705
H          0.01429       -2.67989        0.87726
H         -2.42578       -3.21564        1.42051
H         -2.05643       -1.48758        1.45583
H         -3.86604       -2.77341       -0.30075
H         -3.55815       -1.15718       -0.10065
H          0.35144       -1.68935       -1.32759
H         -1.32109       -1.41528       -1.41992
C         -0.79695       -2.64299        0.14816
C         -2.15406       -2.35655        0.79735
N         -0.50769       -1.54177       -0.80158
N         -3.13924       -2.07390       -0.24074
H         -0.40844       -0.62888       -0.27465
