32
2msa2ma_120.log	Energy: -953959.7950318
S          1.30984        1.67357        0.02443
O          2.32946        2.62342       -0.36039
O          1.24831        0.56403       -1.10112
O         -0.05738        2.18903        0.24490
H         -1.60163        1.71785       -0.20680
C          1.80074        0.78638        1.47675
H          2.76264        0.31385        1.24956
H          1.88200        1.51863        2.28111
H          1.03639        0.03433        1.68809
S         -1.38609       -1.56338        0.13068
O         -2.69916       -1.03036        0.59711
O         -0.35601       -1.66372        1.16857
O         -0.92888       -0.77117       -1.06822
H          0.40108        0.00090       -1.05424
C         -1.70233       -3.20856       -0.47364
H         -2.05976       -3.80824        0.36377
H         -2.45533       -3.15274       -1.25933
H         -0.76523       -3.60937       -0.86082
N          3.78318       -1.08641       -0.26908
H          3.37918       -0.56336       -1.03979
C          3.01213       -2.30189       -0.01564
H          2.96927       -3.00238       -0.86357
H          3.44322       -2.83092        0.83943
H          1.98673       -2.03263        0.25494
H          4.74225       -1.30418       -0.51387
N         -2.59702        1.47162       -0.40827
H         -2.66048        1.31028       -1.41201
C         -3.51937        2.52253        0.06695
H         -4.54888        2.22697       -0.13453
H         -3.37707        2.64278        1.14013
H         -3.29377        3.46319       -0.43496
H         -2.76152        0.53489        0.04923
