29
2msa1a1ma_136.log	Energy: -929295.5697779
S          2.07762       -0.75925        0.14426
O          3.35410       -1.31267       -0.24807
O          1.09022       -1.65797        0.77553
O          1.40295       -0.13347       -1.13548
H          0.40147        0.02053       -0.98857
C          2.31388        0.63231        1.22219
H          2.54765        0.24243        2.21329
H          3.15136        1.20635        0.82487
H          1.40529        1.24495        1.21538
S         -2.21945        0.09652        0.06517
O         -3.22063        1.12967       -0.14859
O         -1.09539        0.13680       -0.93981
O         -2.75677       -1.30587        0.12045
H         -1.73768       -2.26916       -0.42386
C         -1.47143        0.37627        1.66149
H         -0.99978        1.36046        1.64061
H         -2.26637        0.33820        2.40668
H         -0.72939       -0.40381        1.83955
N         -0.88205       -2.82392       -0.81329
H         -0.06409       -2.56383       -0.22695
H         -0.71110       -2.49993       -1.76354
H         -1.03466       -3.82830       -0.80429
N          0.17638        2.87419       -0.02222
H         -0.46350        2.35469       -0.61869
C          1.31708        3.34963       -0.80678
H          1.05214        4.04265       -1.61702
H          2.02937        3.85538       -0.14734
H          1.82414        2.48959       -1.25300
H         -0.34896        3.66026        0.34696
