41
2msa1dma1tma_10.log	Energy: -1027958.4005947
S          3.17743       -0.00881       -0.08662
O          2.94778        1.10720       -1.02345
O          3.34164       -1.33690       -0.70379
O          2.11087       -0.04306        0.98457
C          4.69571        0.35336        0.78361
H          5.50016        0.38109        0.04815
H          4.59267        1.32154        1.27411
H          4.87148       -0.43505        1.51563
S         -2.96058       -0.53144       -0.08010
O         -2.77003       -1.90681       -0.55994
O         -3.15322        0.50398       -1.11041
O         -1.82950       -0.13919        0.85944
C         -4.42501       -0.53167        0.94215
H         -5.26978       -0.80149        0.30757
H         -4.29208       -1.26772        1.73507
H         -4.56317        0.46623        1.35907
N          0.28903       -1.88911        0.22070
C          0.29672       -1.94877       -1.25980
C          0.47552       -3.20286        0.86329
H          1.04430       -1.22792        0.54206
H         -0.51773       -2.59248       -1.59025
H          0.13326       -0.94179       -1.64449
H          1.27589       -2.29899       -1.58578
H         -0.33468       -3.86802        0.56078
H          1.43908       -3.60837        0.55187
H          0.46495       -3.07070        1.94550
H         -0.59488       -1.44953        0.53166
N         -0.69941        2.21161        0.10519
C         -1.86444        3.12947        0.10903
H         -2.60815        2.73737       -0.58520
H         -2.28317        3.16115        1.11598
H         -1.53183        4.12661       -0.18792
C          0.35337        2.63163        1.06547
H         -0.10626        2.76690        2.04571
H          1.11464        1.84910        1.10868
H          0.78871        3.57179        0.71996
C         -0.15651        2.03477       -1.26991
H          0.77498        1.46560       -1.21970
H         -0.91854        1.52843       -1.86473
H          0.06020        3.02038       -1.68829
H         -1.06961        1.27516        0.41649
