37
2msa1ma1eda_08.log	Energy: -1013376.4745851
S          2.86773       -0.14319       -0.01367
O          2.92297        1.27284       -0.40390
O          2.85532       -1.12835       -1.10807
O          1.70104       -0.39577        0.93136
C          4.32139       -0.47286        0.97011
H          5.19331       -0.31962        0.33352
H          4.33386        0.22101        1.81068
H          4.27808       -1.50447        1.31968
S         -2.72315       -0.72235        0.18439
O         -2.65520        0.54651        0.95954
O         -2.35786       -1.92009        0.98320
O         -1.94461       -0.64289       -1.08347
C         -4.43665       -0.91985       -0.26624
H         -5.02213       -0.96315        0.65231
H         -4.73208       -0.06382       -0.87300
H         -4.53594       -1.84727       -0.83029
N          0.11936       -2.33949       -0.19452
H         -0.30377       -1.82107       -0.97535
H          0.75730       -1.66148        0.28688
C          0.84001       -3.55474       -0.62199
H          1.20225       -4.07838        0.26273
H          0.16383       -4.20181       -1.18087
H          1.68545       -3.24822       -1.23724
H         -0.69121       -2.51117        0.42714
H          0.87306        2.20579       -1.00901
H         -0.63993        1.29352       -1.27330
H         -0.94337        3.72826       -1.83602
H         -1.98673        3.21208       -0.50382
H          0.49238        4.75281       -0.20735
H         -1.00799        5.12720        0.33389
H          0.58072        0.93115        0.89263
H          0.04338        2.49226        1.29593
C         -0.16682        2.08922       -0.69461
C         -0.94571        3.39363       -0.79033
N         -0.14860        1.66004        0.72928
N         -0.37312        4.36028        0.14902
H         -1.08397        1.26869        0.98187
