40
2msa1dma1eda_339.log	Energy: -1038016.0506960
S          1.25750       -1.95765       -0.62684
O          0.62360       -1.79145       -1.93866
O          0.30950       -1.73784        0.51893
O          2.48382       -1.12704       -0.44524
C          1.79557       -3.65156       -0.48017
H          2.51828       -3.84452       -1.27321
H          2.25127       -3.78541        0.50087
H          0.92083       -4.29264       -0.59183
S         -2.76377       -0.07256        0.40651
O         -2.81278        0.53212       -0.92014
O         -2.08385        0.68650        1.45457
O         -2.20143       -1.53783        0.34103
H         -1.17195       -1.59216        0.36398
C         -4.42488       -0.43856        0.92427
H         -4.95206        0.51358        0.99029
H         -4.88357       -1.08275        0.17459
H         -4.38483       -0.92944        1.89595
N          2.23102        1.83254        1.87351
C          3.51556        1.14102        2.01448
C          1.12797        1.06355        2.46673
H          2.28686        2.73965        2.32618
H          3.47232        0.20382        1.45053
H          4.31728        1.76088        1.60292
H          3.75381        0.90550        3.06209
H          1.02117        0.11273        1.93534
H          1.29943        0.84706        3.53123
H          0.18779        1.60900        2.36190
H         -0.00479        0.66552       -1.76268
H         -0.19240        1.04249       -0.04719
H         -1.38842        2.69139       -1.46762
H         -0.11678        3.46751       -0.50997
H          0.07766        2.82039       -3.36013
H          0.28029        4.27099       -2.64027
H          2.12204        0.50909       -0.88181
H          2.06768        2.07767       -1.57674
C          0.22876        1.39825       -0.98657
C         -0.30398        2.77624       -1.33952
N          1.70730        1.46671       -0.83763
N          0.41630        3.27453       -2.51704
H          1.95122        1.82718        0.12975
