37
2msa1ma1eda_24.log	Energy: -1013375.1280502
S         -2.73920        0.03229       -0.27889
O         -2.79588       -1.40204       -0.66364
O         -2.53657        0.96358       -1.40868
O         -1.73275        0.25438        0.81196
H         -0.35056        1.22257        0.08456
C         -4.33284        0.41592        0.42338
H         -4.32551        1.45821        0.74258
H         -5.08530        0.25607       -0.34922
H         -4.50467       -0.24763        1.27086
S          2.33908       -0.83950       -0.43389
O          1.69204       -0.39884        0.83756
O          2.09933        0.13344       -1.52957
O          1.96559       -2.23479       -0.78067
H          0.35101       -2.50527       -0.11947
C          4.09835       -0.84100       -0.15113
H          4.31691       -1.52681        0.66749
H          4.58595       -1.16871       -1.06942
H          4.39696        0.17777        0.09869
N         -0.48041       -2.35449        0.49044
H         -0.30821       -1.44614        0.94163
C         -0.64230       -3.42882        1.48730
H         -1.48560       -3.19048        2.13526
H         -0.82878       -4.37120        0.97303
H          0.27108       -3.50658        2.07670
H         -1.34228       -2.20325       -0.07564
H          0.98014        3.65158       -0.96876
H         -0.65727        3.70354       -0.26107
H          1.02717        4.29143        1.40974
H          0.17218        2.81219        1.86024
H          2.71795        2.86440        2.02292
H          2.10630        1.56910        1.22540
H         -0.65175        1.72221       -1.41319
H          0.92671        1.29338       -1.00950
C          0.30581        3.18760       -0.24635
C          0.90513        3.23448        1.15261
N          0.06663        1.78801       -0.68056
N          2.20670        2.58423        1.19457
