25
2msa1ma_82.log	Energy: -893785.5670026
S          1.92707       -0.94789       -0.05905
O          2.13204       -2.37283        0.12584
O          1.00146       -0.49275       -1.09556
O          3.36936       -0.29896       -0.42659
H          3.96727       -1.02612       -0.65351
C          1.56768       -0.11112        1.45070
H          0.55272       -0.40947        1.72519
H          2.29961       -0.43241        2.19156
H          1.62143        0.97037        1.24887
S         -2.30443       -0.14362        0.12914
O         -2.50563        1.27967        0.33633
O         -1.54077       -0.89071        1.12248
O         -1.66952       -0.40427       -1.31121
H         -0.68238       -0.46492       -1.24138
C         -3.88081       -0.92158       -0.12301
H         -4.45005       -0.77671        0.79566
H         -4.37439       -0.43294       -0.96278
H         -3.71779       -1.98064       -0.31857
N          1.53432        2.98390        0.45789
H          1.24789        3.66935        1.14894
C          0.53279        2.88335       -0.60994
H          0.35322        3.82515       -1.14671
H          0.85693        2.12927       -1.33122
H         -0.41534        2.54497       -0.18469
H          2.42489        3.29590        0.08513
