44
2msa2tma_54.log	Energy: -1052600.6631992
S         -2.40126       -1.27160       -0.72847
O         -2.40418       -2.17529        0.42121
O         -2.85090       -1.76973       -2.01340
O         -0.90890       -0.73784       -0.83056
C         -3.33113        0.18937       -0.31239
H         -2.87151        0.65413        0.56153
H         -3.30018        0.86884       -1.16470
H         -4.35246       -0.13785       -0.11424
S         -0.13557        2.31083        0.01564
O          1.32358        2.41848        0.12976
O         -0.77631        1.62058        1.16765
O         -0.58465        1.68776       -1.28327
H         -0.81056        0.25422       -1.13954
C         -0.79748        3.96507       -0.03712
H         -0.51953        4.46767        0.88952
H         -0.36138        4.47361       -0.89698
H         -1.88130        3.90175       -0.13458
N          3.04492       -0.80319       -0.80088
C          3.97404        0.28353       -0.52120
H          3.41256        1.20201       -0.32871
H          4.57195        0.04162        0.36499
H          4.67037        0.46390       -1.36132
C          3.75287       -2.05249       -1.02151
H          4.33076       -2.31883       -0.12995
H          3.03706       -2.85644       -1.22312
H          4.44984       -1.99829       -1.87897
C          2.19733       -0.47399       -1.94081
H          1.43610       -1.24769       -2.07668
H          1.69142        0.47685       -1.76088
H          2.78008       -0.38690       -2.87684
N          0.37387       -0.95022        1.81852
C          1.57797       -0.17500        2.22015
H          2.27354       -0.19172        1.38062
H          1.27412        0.84863        2.43177
H          2.01398       -0.65249        3.10072
C         -0.65736       -0.97319        2.88740
H         -0.91676        0.05840        3.12338
H         -1.52898       -1.50650        2.50702
H         -0.24136       -1.47901        3.76122
C          0.73423       -2.31525        1.35259
H         -0.17095       -2.80735        0.99787
H          1.46019       -2.20268        0.54642
H          1.17371       -2.86025        2.19091
H         -0.05504       -0.45930        1.01871
