25
2msa1ma_32.log	Energy: -893800.3520732
S          2.26979       -0.39007        0.04624
O          1.76399        0.20067       -1.19693
O          2.45477        0.47253        1.19367
O          3.70778       -1.04039       -0.32420
H          3.84827       -0.94427       -1.27728
C          1.31977       -1.81079        0.49588
H          0.35294       -1.43109        0.84271
H          1.18240       -2.43151       -0.38887
H          1.85990       -2.33133        1.28693
S         -2.22392       -0.46097       -0.10844
O         -1.80944       -1.73564       -0.70241
O         -2.45876        0.64920       -1.06769
O         -1.27486       -0.00767        0.98156
H         -0.53488        1.33477        0.41557
C         -3.78001       -0.74461        0.72000
H         -3.63194       -1.52358        1.46827
H         -4.10229        0.18531        1.18839
H         -4.50155       -1.06783       -0.03083
N         -0.23392        2.05675       -0.30282
H          0.47958        1.57955       -0.86992
C          0.26263        3.31485        0.28273
H          0.51146        4.02261       -0.50817
H         -0.50877        3.73683        0.92643
H          1.15125        3.09122        0.87323
H         -1.08500        2.13237       -0.87528
