29
2msa1a1ma_54.log	Energy: -929301.4267442
S         -2.07366       -0.27067       -0.55668
O         -1.32716        0.73176       -1.32115
O         -3.32156       -0.76445       -1.13041
O         -2.37724        0.35992        0.86234
H         -3.34774        0.14856        1.14920
C         -0.99441       -1.62086       -0.18064
H         -0.61838       -2.01725       -1.12468
H         -0.15893       -1.23924        0.41495
H         -1.57401       -2.36958        0.35985
S          2.63986       -0.54744        0.09602
O          2.31910       -1.65577       -0.81001
O          1.57678       -0.24990        1.09326
O          3.04397        0.71657       -0.61963
H          1.82200        1.65518       -0.70727
C          4.09360       -1.02164        1.01937
H          3.85973       -1.93585        1.56572
H          4.90170       -1.19759        0.30893
H          4.35043       -0.21539        1.70641
N         -4.88319       -0.21956        1.38967
H         -5.07408       -0.92435        2.09442
H         -5.12084       -0.60372        0.47693
H         -5.48695        0.57648        1.56789
N          0.91985        2.24641       -0.67600
H          0.98357        2.99604       -1.36052
C          0.69420        2.75780        0.69595
H         -0.27094        3.26209        0.74824
H          0.71401        1.89604        1.36334
H          1.49850        3.44511        0.95877
H          0.13458        1.62840       -0.95051
