25
2msa1ma_26.log	Energy: -893800.4285352
S          2.59652       -0.32414       -0.12490
O          3.74514       -0.87499       -0.81797
O          1.98897        0.90886       -0.61196
O          3.05762       -0.00943        1.40185
H          3.95900       -0.34310        1.51768
C          1.34087       -1.54392        0.12137
H          0.87756       -1.74792       -0.84557
H          1.81515       -2.43820        0.52509
H          0.58137       -1.14102        0.79692
S         -2.22606       -0.65367       -0.06626
O         -1.42902       -0.14469        1.10319
O         -1.69710       -1.90201       -0.62425
O         -2.41693        0.43918       -1.07040
H         -1.23802        1.68692       -0.78634
C         -3.85370       -1.00965        0.57400
H         -4.26846       -0.09810        1.00427
H         -4.46972       -1.35964       -0.25472
H         -3.75596       -1.78598        1.33314
N         -0.54039        2.08910       -0.11541
H         -0.75884        1.50340        0.71604
C         -0.67718        3.54012        0.10039
H          0.04084        3.86706        0.85227
H         -0.48978        4.06386       -0.83669
H         -1.69029        3.75305        0.44072
H          0.40314        1.80620       -0.41481
