37
2msa1ma1eda_580.log	Energy: -1013342.2426070
S         -1.48402        1.98446       -0.23011
O         -1.10317        1.58620       -1.57448
O         -2.61052        1.31479        0.41630
O         -1.89902        3.55396       -0.30187
H         -1.68997        3.87522       -1.19073
C         -0.10694        2.01428        0.87289
H          0.07619        0.96464        1.11539
H          0.77030        2.41879        0.35395
H         -0.39746        2.59741        1.74712
S          0.20873       -2.03469       -0.44370
O          1.31557       -2.91162       -0.04637
O         -0.13462       -0.98433        0.55802
O         -1.04823       -2.77503       -0.82485
H         -2.23477       -2.06536       -0.16184
C          0.72552       -1.18149       -1.92256
H          1.66639       -0.67522       -1.69614
H          0.87289       -1.93023       -2.70185
H         -0.04589       -0.46360       -2.20048
N         -2.98036       -1.53536        0.41802
H         -2.78673       -0.52620        0.32111
C         -2.86205       -1.93132        1.84048
H         -3.56401       -1.35796        2.44647
H         -3.06087       -2.99891        1.93224
H         -1.83569       -1.72208        2.14067
H         -3.90702       -1.72352        0.04314
H          4.71968        1.54915        0.88276
H          3.32497        2.07751        1.83286
H          3.64248       -0.32139        2.08089
H          2.11800       -0.02222        1.24103
H          4.57609       -0.94213       -0.03328
H          3.09150       -1.64745       -0.01122
H          3.43749        2.91092       -0.54048
H          3.04692        1.38524       -0.98658
C          3.61926        1.50193        0.94640
C          3.20522        0.04552        1.13943
N          2.96395        2.06740       -0.23523
N          3.57897       -0.75264       -0.02678
