30
2msa1eda_91.log	Energy: -953200.4698821
S         -2.68571       -0.44902       -0.01218
O         -3.86456       -1.21992       -0.34921
O         -2.74861        1.00645        0.03784
O         -1.53696       -0.88385       -1.02511
H         -0.84615       -0.15731       -1.12497
C         -2.04872       -1.02792        1.54809
H         -2.78681       -0.77410        2.31001
H         -1.92426       -2.10920        1.48271
H         -1.10137       -0.51628        1.73062
S          0.92127        1.54372       -0.06442
O          0.40042        0.82345       -1.26806
O          2.32679        1.94997       -0.21097
O          0.72354        0.70556        1.17443
H          2.10891       -0.13279        1.27552
C         -0.09811        2.98239        0.13979
H          0.02560        3.59851       -0.75109
H         -1.13034        2.64146        0.23937
H          0.23977        3.51240        1.03020
H          3.56234       -2.68468        0.68513
H          2.09488       -2.50793        1.68539
H          1.62791       -3.23024       -0.73421
H          0.79218       -1.75649       -0.25434
H          2.77632       -1.97857       -2.27301
H          1.84280       -0.67087       -1.86234
H          3.69146       -0.56154        1.75908
H          3.31010       -0.32129        0.14270
C          2.63055       -2.12820        0.81306
C          1.77874       -2.18080       -0.46283
N          2.97986       -0.70284        1.04677
N          2.44413       -1.41036       -1.50608
