37
2msa1ma1eda_372.log	Energy: -1013353.4949876
S         -2.03405        1.58197        0.21198
O         -3.33557        2.24599        0.15163
O         -1.75249        0.68353       -0.95508
O         -1.79076        0.83359        1.49279
H         -1.38672       -0.67705        1.11551
C         -0.77239        2.84474        0.15955
H         -0.94040        3.52025        0.99904
H          0.20251        2.36054        0.24136
H         -0.87449        3.38057       -0.78509
S          1.97213       -0.36523       -0.69036
O          1.98113        0.71463        0.30253
O          1.34997       -1.62915       -0.28730
O          3.43755       -0.62894       -1.15904
H          4.15072       -0.16524       -0.45458
C          1.17428        0.20244       -2.16809
H          0.13158        0.41998       -1.90807
H          1.68895        1.10177       -2.50638
H          1.24018       -0.58883       -2.91515
N          4.94638        0.44118        0.55106
H          5.89451        0.66632        0.26450
C          4.93552       -0.41423        1.75083
H          5.43943        0.05122        2.60263
H          3.89611       -0.61395        2.01691
H          5.42269       -1.36226        1.51672
H          4.45742        1.31375        0.74071
H         -3.94115       -0.96336        0.97793
H         -4.53811       -2.59903        0.67093
H         -2.46246       -2.60101        2.08033
H         -2.25956       -3.48483        0.53951
H         -0.36941       -2.01046        0.77867
H         -1.35809       -1.38061       -0.36453
H         -4.48673       -1.89693       -1.46964
H         -3.31685       -0.76808       -1.22644
C         -3.72788       -1.89962        0.44562
C         -2.43510       -2.50629        0.99221
N         -3.61013       -1.71734       -0.99845
N         -1.30264       -1.62240        0.63228
