38
2msa1ma1tma_33.log	Energy: -1003284.9307396
S          1.37997       -1.64327       -0.21991
O          0.58253       -2.12354        0.91652
O          2.64575       -0.97274        0.12253
O          0.55464       -0.75506       -1.13761
C          1.79221       -3.06596       -1.21586
H          2.40696       -3.72832       -0.60587
H          0.86574       -3.56193       -1.50641
H          2.34400       -2.72785       -2.09297
S         -2.56846       -0.11146        0.02882
O         -3.95318        0.18822       -0.27224
O         -1.64920        1.00382        0.28986
O         -1.98860       -0.95835       -1.17196
H         -0.96890       -0.93712       -1.16052
C         -2.47604       -1.22460        1.40964
H         -2.83112       -0.67995        2.28546
H         -3.12329       -2.07516        1.19537
H         -1.43466       -1.53789        1.52261
N          2.03363        1.13693        2.23979
H          2.35927        0.33534        1.69874
C          0.75561        0.81187        2.88001
H          0.78158       -0.09409        3.50010
H          0.43539        1.65202        3.50492
H         -0.00806        0.66782        2.11025
H          2.74023        1.31570        2.94582
N          0.79838        2.03747       -0.84523
C          2.26112        1.95530       -1.09777
H          2.76116        1.83799       -0.13748
H          2.45610        1.08044       -1.71565
H          2.57699        2.87337       -1.59804
C          0.02899        2.17264       -2.10818
H          0.25624        1.31321       -2.73856
H         -1.03245        2.18086       -1.86371
H          0.32138        3.10236       -2.60040
C          0.47568        3.11505        0.12770
H         -0.59477        3.08930        0.32402
H          1.04011        2.90684        1.03950
H          0.77063        4.07100       -0.31101
H          0.50815        1.12642       -0.45066
