43
2msa1eda1tma_34.log	Energy: -1062689.7944026
S          2.69968        0.00754       -0.32722
O          2.23544        0.90878       -1.41057
O          3.32200       -1.24184       -0.79031
O          1.59239       -0.25539        0.66675
C          3.92163        0.92834        0.58752
H          3.44101        1.84498        0.93385
H          4.26318        0.31831        1.42392
H          4.74642        1.15244       -0.08966
S         -3.05870       -0.12020       -0.00516
O         -2.80952        1.03404        0.88591
O         -3.06993       -1.43398        0.66462
O         -2.12333       -0.09859       -1.18498
C         -4.69057        0.10353       -0.69963
H         -5.41066        0.08605        0.11893
H         -4.71912        1.06379       -1.21520
H         -4.88170       -0.71259       -1.39671
H         -0.57278        3.53391       -1.28814
H         -1.79662        2.99714       -0.10894
H         -0.43185        4.84958        0.79798
H         -0.29587        3.37211        1.75506
H          1.73933        4.21282       -0.19632
H          1.88650        4.20516        1.43293
H         -0.91879        1.03338       -0.86196
H          0.69543        1.58825       -0.90159
C         -0.72675        3.05805       -0.31513
C         -0.02673        3.82636        0.79516
N         -0.21787        1.67332       -0.41276
N          1.42466        3.75255        0.65245
H         -0.04501        1.26665        0.51019
N          0.56145       -2.72171        0.34770
C          1.70988       -3.65775        0.41480
H          2.47136       -3.31869       -0.28769
H          2.11897       -3.63780        1.42582
H          1.36044       -4.66423        0.17324
C         -0.45803       -3.01677        1.38691
H          0.00620       -2.90191        2.36745
H         -1.30406       -2.33395        1.27316
H         -0.80300       -4.04535        1.25599
C         -0.03028       -2.67466       -1.01661
H         -0.81492       -1.91452       -1.04133
H          0.76269       -2.41793       -1.72073
H         -0.44815       -3.65618       -1.25201
H          0.94648       -1.75474        0.52852
