30
2msa1eda_174.log	Energy: -953178.5877672
S          2.41386       -0.80362       -0.00711
O          3.08193       -2.01521       -0.43289
O          1.54379       -0.85149        1.16738
O          1.55969       -0.18040       -1.21627
H          0.63949       -0.53486       -1.19128
C          3.59488        0.50745        0.18246
H          4.29653        0.17991        0.95053
H          4.10715        0.64245       -0.77009
H          3.06045        1.40837        0.49509
S         -2.01553       -1.25808       -0.01364
O         -1.05355       -0.90867       -1.05490
O         -2.33554       -2.65299        0.21327
O         -3.40196       -0.49705       -0.39892
H         -4.04687       -1.17005       -0.66229
C         -1.60750       -0.40854        1.48080
H         -0.59017       -0.71509        1.73608
H         -1.66424        0.66956        1.28023
H         -2.32645       -0.71403        2.24070
H          0.33870        4.08321       -0.06234
H          1.12824        2.86068       -1.04545
H         -1.18882        3.13643       -1.74209
H         -0.89565        1.50222       -1.14451
H         -2.20604        3.59517        0.44114
H         -2.91164        2.27433       -0.20736
H          0.22356        2.59180        1.72917
H          0.74757        1.32823        0.85754
C          0.37053        3.00536       -0.26688
C         -0.97573        2.54879       -0.83500
N          0.82014        2.33794        0.94906
N         -2.03914        2.63022        0.17053
