42
2msa2eda_344.log	Energy: -1072753.8382794
S          0.85935        1.91614        0.36177
O          2.15838        1.70255       -0.31272
O          0.80469        1.48795        1.76129
O         -0.24799        1.29082       -0.47007
C          0.52739        3.66810        0.30799
H          1.31745        4.17195        0.86546
H          0.52452        3.98766       -0.73406
H         -0.44194        3.84491        0.77533
S         -3.29486       -0.17444       -0.36980
O         -3.67015       -0.91821        0.82642
O         -2.39501       -0.82441       -1.31975
O         -2.71171        1.23099        0.03087
H         -1.69454        1.28380       -0.13616
C         -4.78148        0.31452       -1.21124
H         -5.30257       -0.60001       -1.49591
H         -5.38733        0.90401       -0.52333
H         -4.50443        0.89541       -2.09035
H          1.36404       -2.74646        0.80920
H          1.54785       -1.01781        1.15814
H         -0.04496       -2.07815        2.77441
H         -0.86405       -0.88591        1.78099
H         -1.25068       -3.74555        1.71307
H         -2.27078       -2.52976        1.25732
H          1.18619       -1.47756       -1.21134
H         -0.37583       -2.13323       -0.77799
C          0.84029       -1.78741        0.84522
C         -0.38042       -1.86776        1.75223
N          0.37959       -1.48341       -0.53464
N         -1.31241       -2.86219        1.22330
H         -0.01549       -0.52603       -0.57899
H          5.20728        0.08851       -0.95152
H          5.65582       -1.37930       -0.06982
H          4.49691       -2.03458       -2.07375
H          3.52102       -2.43022       -0.65739
H          2.65455        0.06300       -1.41601
H          2.90231       -0.69966       -2.83539
H          4.75023       -0.06297        1.56510
H          3.49844        0.46384        0.65891
C          4.80498       -0.75560       -0.36636
C          3.90317       -1.59868       -1.26311
N          4.09673       -0.34045        0.84228
N          2.76535       -0.85961       -1.84439
