37
2msa1ma1eda_560.log	Energy: -1013347.6748247
S         -2.85459        0.13019       -0.52443
O         -4.28412        0.09467       -0.75098
O         -2.29425       -0.63605        0.59742
O         -2.42317        1.64013       -0.34856
H         -1.57794        1.74077        0.23393
C         -2.00213       -0.36346       -2.00316
H         -2.19749       -1.42655       -2.15356
H         -2.40091        0.22417       -2.83007
H         -0.93338       -0.17818       -1.87225
S          2.33632        0.38972       -0.85365
O          1.14348        0.48026       -1.70176
O          2.56715       -0.95037       -0.25383
O          2.34471        1.44054        0.23955
H          2.06416        0.63604        1.60736
C          3.75015        0.76294       -1.87037
H          3.79576        0.01021       -2.65776
H          3.60750        1.75606       -2.29638
H          4.64505        0.72848       -1.24938
N         -0.10169       -2.76018       -0.31182
H          0.54486       -2.07828       -0.69627
C          0.52106       -3.50855        0.76280
H          0.80671       -2.91375        1.65466
H         -0.15743       -4.29307        1.11087
H          1.42919       -3.99184        0.39348
H         -0.93844       -2.27878        0.00245
H          0.08275        1.66737        3.31373
H         -1.45970        1.04410        2.71152
H         -0.16642       -0.89433        2.89274
H         -0.09195       -0.50734        1.17568
H          2.04746       -0.08208        3.17361
H          2.06583       -0.97507        1.74353
H         -0.56483        3.03984        1.52672
H          0.53203        2.06295        0.78982
C         -0.41266        1.20868        2.44410
C          0.19079       -0.15983        2.16975
N         -0.37815        2.07774        1.25908
N          1.68638       -0.14634        2.22436
