38
2msa2dma_108.log	Energy: -1003287.4023300
S         -2.24749        0.13386       -0.73010
O         -3.70674        0.20240       -0.66093
O         -1.68680       -1.09292       -1.34709
O         -1.58395        0.36856        0.61265
H         -0.97264       -1.19919        0.99460
C         -1.70216        1.48885       -1.76388
H         -2.10086        1.31287       -2.76365
H         -2.11184        2.41834       -1.36535
H         -0.61018        1.49998       -1.77643
S          2.28150       -0.14253       -0.79010
O          1.97017       -0.78370        0.53248
O          3.70984       -0.01384       -1.05483
O          1.52520        1.15562       -0.91003
H          0.97577        1.77672        0.37263
C          1.56191       -1.19559       -2.03544
H          2.03276       -2.17661       -1.95650
H          0.48083       -1.24541       -1.87276
H          1.78024       -0.75198       -3.00743
N         -0.31822       -1.98478        1.23636
C         -0.68861       -3.22857        0.52919
C         -0.23990       -2.13889        2.69991
H          0.60191       -1.61608        0.88275
H         -1.63291       -3.60112        0.93016
H         -0.82316       -2.99274       -0.52460
H          0.09893       -3.97003        0.67744
H         -1.22154       -2.41072        3.09135
H          0.48679       -2.91502        2.94533
H          0.08040       -1.19624        3.14181
N          0.80371        2.38587        1.24811
C          0.67198        1.52001        2.44205
C         -0.35424        3.28353        1.03064
H          1.65928        2.93639        1.32109
H         -0.27999        0.99757        2.34729
H          1.49483        0.80361        2.43259
H          0.68854        2.13255        3.34595
H         -1.24193        2.65370        0.95993
H         -0.44076        3.98230        1.86505
H         -0.20270        3.82706        0.09765
