40
2msa1dma1eda_255.log	Energy: -1038019.7821372
S         -0.78708       -2.00035        0.46424
O         -0.91044       -1.46993        1.83063
O          0.61562       -2.40421        0.11119
O         -1.37822       -1.09862       -0.56089
C         -1.70839       -3.52450        0.38053
H         -1.60419       -3.93583       -0.62344
H         -1.29798       -4.20869        1.12329
H         -2.75236       -3.29989        0.60083
S          2.74414        0.21320       -0.60808
O          3.58191        1.26816       -0.05438
O          1.47856        0.59516       -1.22984
O          2.49473       -0.82430        0.53815
H          1.69326       -1.46906        0.35505
C          3.68806       -0.70782       -1.80220
H          3.92143       -0.03311       -2.62638
H          4.59896       -1.06055       -1.31909
H          3.07561       -1.54231       -2.14551
N         -3.53495        1.74561       -1.00856
C         -4.14702        0.85437       -0.01976
C         -3.37733        1.09712       -2.31298
H         -4.10004        2.58225       -1.11066
H         -3.47329        0.00856        0.14975
H         -4.28247        1.38838        0.92465
H         -5.12106        0.46192       -0.34791
H         -2.68831        0.25385       -2.20712
H         -4.32823        0.71650       -2.71474
H         -2.95335        1.80791       -3.02705
H         -1.47647        2.63273        1.73446
H         -1.42606        0.84762        1.90236
H          0.51016        1.96054        3.06366
H          1.01766        0.85941        1.79341
H          1.23487        3.74779        1.76475
H          2.16181        2.61686        0.99993
H         -1.83725        1.87627       -0.40937
H         -0.13263        2.16369       -0.34863
C         -0.92322        1.72206        1.48527
C          0.52026        1.81589        1.97677
N         -0.91345        1.59647        0.00659
N          1.21200        2.87733        1.24892
H         -0.76980        0.61086       -0.28418
