42
2msa2eda_272.log	Energy: -1072755.8847321
S         -2.22827       -0.93239        0.68471
O         -2.29650       -1.22524       -0.73890
O         -2.19414        0.49208        1.05614
O         -1.06020       -1.68899        1.38270
C         -3.61540       -1.66637        1.51941
H         -4.51362       -1.17962        1.13842
H         -3.62523       -2.73191        1.29195
H         -3.50623       -1.49393        2.58974
S          1.84333       -1.47719       -0.76411
O          3.00098       -0.76245       -0.19694
O          0.96839       -0.62881       -1.61000
O          1.06115       -2.22814        0.27815
H         -0.17674       -1.85457        0.81315
C          2.48186       -2.75180       -1.83252
H          3.10589       -3.41429       -1.23277
H          1.63650       -3.29155       -2.25888
H          3.06905       -2.26960       -2.61428
H         -0.64238        3.51753       -1.53593
H          0.21358        2.35638       -2.58574
H         -2.09035        2.40825       -3.26617
H         -1.81477        0.85304       -2.46372
H         -3.86235        2.23891       -1.82610
H         -2.97724        1.69898       -0.56724
H          0.83383        2.09806       -0.24146
H         -0.75052        1.62046        0.12073
C         -0.54976        2.46436       -1.81092
C         -1.89277        1.93805       -2.29796
N         -0.06153        1.71062       -0.63333
N         -2.95886        2.31749       -1.37446
H          0.19950        0.74132       -0.91598
H          3.60230        1.54603        2.00798
H          3.08199        3.23446        2.02648
H          1.73827        1.79818        3.52750
H          0.76319        2.62566        2.30707
H          1.64563       -0.16017        1.94607
H          0.13798        0.29911        2.40549
H          3.27120        2.82113       -0.19605
H          2.78454        1.26451       -0.08514
C          2.79200        2.22709        1.71110
C          1.51400        1.83698        2.44915
N          2.59586        2.21222        0.25343
N          0.96997        0.59818        1.90959
