35
2msa1a1tma_51.log	Energy: -978621.2635236
S          0.21527        1.83178       -0.14521
O         -0.05583        0.88796       -1.26692
O          1.49171        2.56972       -0.34245
O          0.18003        1.14157        1.17897
H          2.02540        0.91860        1.81405
C         -1.10392        3.02106       -0.15420
H         -1.07906        3.53434       -1.11559
H         -2.03821        2.47015       -0.03023
H         -0.93794        3.72095        0.66484
S         -2.82846       -0.92863        0.00008
O         -3.79359       -1.97949       -0.24957
O         -3.22764        0.47101       -0.08815
O         -1.60159       -1.18282       -0.98039
H         -1.06261       -0.34292       -1.10931
C         -2.09357       -1.18832        1.60231
H         -2.88342       -1.05552        2.34299
H         -1.70541       -2.20675        1.63757
H         -1.30349       -0.44499        1.73237
N          2.92251        0.94711        1.30736
H          3.70902        1.13535        1.92046
H          2.75477        1.71460        0.62369
H          3.00691       -0.00533        0.74923
N          2.88422       -1.35069       -0.10580
C          2.78614       -0.95435       -1.51737
H          1.93271       -0.28503       -1.65132
H          3.69995       -0.43052       -1.81229
H          2.65717       -1.83172       -2.16821
C          4.02801       -2.23324        0.11852
H          4.94673       -1.73703       -0.20681
H          4.11387       -2.46616        1.18412
H          3.92811       -3.17834       -0.43646
C          1.63533       -1.97776        0.34458
H          1.71620       -2.22606        1.40740
H          0.80785       -1.27974        0.20785
H          1.41872       -2.89719       -0.21805
