35
2msa1ma1dma_282.log	Energy: -978615.7266122
S         -1.74889       -1.24244       -0.59422
O         -2.84203       -2.17585       -0.80987
O         -0.47458       -1.92773       -0.13129
O         -2.04787       -0.12180        0.35126
H         -1.06783       -0.06039        1.59081
C         -1.34737       -0.46674       -2.14842
H         -1.08618       -1.25055       -2.86030
H         -2.23646        0.06924       -2.48198
H         -0.51326        0.22102       -1.99785
S          2.26648       -0.08985       -0.30183
O          2.14354        0.01588        1.16393
O          1.58214        0.94228       -1.07271
O          1.84961       -1.51128       -0.77611
H          0.82241       -1.70114       -0.54843
C          3.99164       -0.09828       -0.70811
H          4.46995       -0.91043       -0.16168
H          4.08645       -0.23608       -1.78476
H          4.39326        0.86857       -0.40376
N         -0.36233       -0.12134        2.38916
H          0.57756       -0.00055        1.96490
C         -0.46718       -1.44224        3.05334
H          0.29650       -1.52753        3.82635
H         -1.46123       -1.54628        3.48762
H         -0.32364       -2.20327        2.28673
H         -0.52934        0.65046        3.03105
N         -0.53692        3.11219       -0.19107
C         -1.73770        3.08500       -1.00840
C         -0.82469        3.12088        1.22680
H          0.07080        2.33506       -0.42777
H         -2.28894        4.02385       -0.87915
H         -1.45812        3.00928       -2.06327
H         -2.41507        2.25053       -0.75968
H         -1.27360        4.08003        1.51101
H         -1.53405        2.32911        1.53756
H          0.10954        3.01599        1.78979
