38
2msa1ma1tma_04.log	Energy: -1003297.1431657
S         -2.70307       -0.57160       -0.03957
O         -2.97898        0.86276        0.27548
O         -2.30870       -1.36124        1.15627
O         -1.73371       -0.71800       -1.15088
C         -4.26090       -1.23503       -0.59766
H         -4.99015       -1.11377        0.20346
H         -4.56696       -0.68375       -1.48675
H         -4.11603       -2.29047       -0.82891
S          2.84710       -0.01625       -0.06911
O          2.89982        1.45209        0.04030
O          2.05818       -0.51831       -1.22223
O          2.39531       -0.68173        1.20124
C          4.53051       -0.56168       -0.31999
H          4.90083       -0.10043       -1.23591
H          5.12277       -0.24108        0.53738
H          4.53733       -1.64839       -0.40836
N          0.27266       -2.13191        0.36432
H          0.13768       -1.63607       -0.52551
H          1.06603       -1.62527        0.83694
C          0.60708       -3.54876        0.13392
H          0.76770       -4.04026        1.09329
H         -0.21171       -4.03411       -0.39746
H          1.51804       -3.59751       -0.46247
H         -0.61802       -2.00263        0.87855
N         -0.73969        2.33137        0.07533
C         -0.02572        2.07688       -1.20674
H          0.08469        1.00184       -1.34320
H         -0.62371        2.49294       -2.01848
H          0.96387        2.53295       -1.15787
C         -1.04498        3.76702        0.25985
H         -1.63718        4.11654       -0.58643
H         -1.61354        3.89396        1.18171
H         -0.10848        4.32564        0.31692
C         -0.00114        1.77962        1.24229
H         -0.58662        1.96697        2.14274
H          0.11627        0.70688        1.10327
H          0.99150        2.22764        1.29421
H         -1.65390        1.80513        0.05247
