37
2msa1ma1eda_218.log	Energy: -1013362.3900033
S         -1.19869       -1.64387       -0.60742
O         -0.17315       -1.65795       -1.66005
O         -2.45335       -0.95102       -0.95236
O         -0.64210       -1.09760        0.69864
C         -1.61249       -3.34046       -0.24159
H         -0.70126       -3.85862        0.05822
H         -2.34788       -3.35077        0.56283
H         -2.02584       -3.78336       -1.14809
S          2.73787       -0.27196        0.51386
O          4.01134       -0.17252        1.19515
O          1.94984        0.94666        0.30103
O          1.85499       -1.31601        1.30843
H          0.87729       -1.25328        1.05018
C          2.96538       -1.05570       -1.06615
H          3.56628       -0.38153       -1.67801
H          3.49445       -1.99415       -0.89951
H          1.98015       -1.23063       -1.50644
N         -3.61306        1.21248        0.70754
H         -4.44145        1.78445        0.58440
C         -3.65198        0.49932        1.99059
H         -4.54350       -0.12704        2.11612
H         -2.77149       -0.14639        2.05519
H         -3.61403        1.21822        2.81375
H         -3.58050        0.52519       -0.04692
H          0.22935        1.21554       -1.35615
H         -1.46124        1.62098       -1.68523
H          0.23788        3.44374       -2.31206
H         -1.04408        4.00177       -1.22827
H          1.61848        3.18259       -0.27074
H          0.98442        4.70910       -0.25548
H         -0.65388        0.69595        0.60994
H         -0.31757        2.33030        0.87935
C         -0.58545        1.89054       -1.09316
C         -0.16834        3.34624       -1.29592
N         -0.89438        1.66836        0.34352
N          0.75762        3.72318       -0.23263
H         -1.92717        1.77107        0.53565
