32
2msa2ma_72.log	Energy: -953963.3774080
S         -2.08697       -0.74136       -0.08637
O         -1.20806       -1.24495       -1.19406
O         -2.60047        0.62148       -0.35389
O         -1.43069       -0.85631        1.23773
C         -3.48264       -1.84683       -0.08152
H         -3.11532       -2.85443        0.11251
H         -4.16546       -1.52400        0.70447
H         -3.96268       -1.78925       -1.05835
S          2.08350       -0.94963        0.11826
O          1.90238       -2.24616        0.74197
O          1.86229        0.25234        0.92594
O          1.25403       -0.83237       -1.22077
H          0.24241       -1.06996       -1.13135
C          3.72048       -0.84815       -0.57339
H          4.41896       -0.90910        0.26188
H          3.85952       -1.68710       -1.25453
H          3.82507        0.10391       -1.09286
N         -0.54986        1.76662        1.43305
H         -0.54898        0.73638        1.55397
H         -0.23987        1.94185        0.41675
C          0.28837        2.46746        2.42197
H          0.26847        3.53949        2.22114
H         -0.08453        2.27485        3.42841
H          1.30361        2.08602        2.32593
H         -1.53427        2.03128        1.47016
N         -0.05281        2.03439       -1.26815
H          0.58951        1.27954       -1.49989
C          0.30230        3.26532       -1.97483
H          0.32077        3.15376       -3.06613
H         -0.41830        4.04883       -1.72550
H          1.28975        3.60220       -1.64743
H         -0.98125        1.70538       -1.53262
