42
2msa2eda_449.log	Energy: -1072748.9966109
S         -0.30114       -1.60227       -0.83558
O         -1.40615       -2.38600       -1.35884
O         -0.07741       -0.27933       -1.43983
O          1.00743       -2.45218       -0.94552
H          1.84990       -1.89094       -0.76898
C         -0.52835       -1.38109        0.91121
H         -1.39740       -0.73322        1.03410
H         -0.70962       -2.36292        1.34913
H          0.37384       -0.91953        1.32256
S          3.29641        0.01304        0.47596
O          3.12818       -1.11301       -0.49049
O          2.19705        0.07341        1.46915
O          3.50522        1.32257       -0.19626
H          1.89484        2.06190       -0.23540
C          4.80273       -0.34881        1.35450
H          4.68021       -1.31128        1.85132
H          5.61395       -0.38986        0.62774
H          4.97178        0.44562        2.08139
H         -3.56574       -1.59685        1.52239
H         -5.11025       -1.05519        2.18235
H         -5.34396       -1.25348       -0.18904
H         -5.40057        0.46811        0.24060
H         -3.09561       -0.92251       -0.94055
H         -3.97716        0.26755       -1.59690
H         -3.43767        0.24444        3.19679
H         -2.81284        0.73432        1.76726
C         -4.25201       -0.73369        1.58324
C         -4.74589       -0.40727        0.17997
N         -3.66700        0.43829        2.22874
N         -3.62512       -0.08172       -0.71097
H          0.30457        4.04584       -0.29975
H          0.68177        3.34367       -1.88653
H         -1.80070        3.68880       -1.56132
H         -1.35189        2.01181       -1.88338
H         -2.39449        3.04853        0.59539
H         -2.53915        1.55918       -0.10911
H          0.49701        1.91110        0.68413
H          0.60998        1.13549       -0.74443
C          0.18089        3.16363       -0.93306
C         -1.29302        2.81202       -1.13863
N          0.85365        2.02646       -0.26617
N         -1.88807        2.32337        0.10057
