35
2msa1ma1dma_70.log	Energy: -978629.1413967
S          2.31880       -0.36605        0.09600
O          2.25530        0.70042       -0.93744
O          2.23482       -1.73823       -0.41469
O          1.30758       -0.08590        1.18075
H          0.03547       -0.90028        1.17437
C          3.90670       -0.19326        0.88996
H          4.67530       -0.34500        0.13166
H          3.97811        0.80724        1.31665
H          3.97998       -0.95245        1.66870
S         -1.52095       -1.58034       -0.21584
O         -2.92755       -1.86969       -0.00232
O         -0.88360       -1.35993        1.21869
O         -1.16811       -0.44282       -1.06663
H         -0.74385        1.79917        0.15383
C         -0.68654       -3.02250       -0.82573
H         -0.89617       -3.84327       -0.13990
H         -1.09495       -3.22909       -1.81572
H          0.38193       -2.79584       -0.87257
N         -2.01177        1.55773        1.39212
H         -1.81671        0.60739        1.70275
C         -3.34482        1.61908        0.77624
H         -4.15288        1.31841        1.45278
H         -3.53903        2.63949        0.43273
H         -3.36174        0.95310       -0.08872
H         -1.97517        2.14462        2.21983
N         -0.03644        2.16817       -0.54025
C          0.68367        3.27703        0.11180
C         -0.72722        2.53893       -1.78971
H          0.66412        1.42339       -0.73795
H         -0.02575        4.06410        0.37582
H          1.16130        2.88549        1.01017
H          1.44429        3.66572       -0.56654
H         -1.46484        3.31559       -1.57694
H          0.00375        2.90841       -2.51103
H         -1.21960        1.64841       -2.17787
