32
2msa2ma_241.log	Energy: -953946.4296135
S         -2.71687        0.16968       -0.28694
O         -2.42049        1.57433       -0.02699
O         -2.63190       -0.76113        0.82983
O         -1.83998       -0.35885       -1.49957
H         -0.89004       -0.49942       -1.20161
C         -4.31685        0.04426       -1.04717
H         -5.03883        0.40625       -0.31454
H         -4.32727        0.66793       -1.94058
H         -4.50146       -1.00182       -1.28872
S          1.23569       -1.45462        0.32876
O          1.23483       -2.86995        0.00935
O          0.61966       -0.55328       -0.68732
O          2.68071       -0.91632        0.56478
H          3.02419       -0.33284       -0.29305
C          0.45168       -1.17599        1.88829
H         -0.57559       -1.53281        1.79170
H          1.00273       -1.74765        2.63567
H          0.45772       -0.09820        2.09310
N          3.36231        0.43826       -1.46208
H          3.86060       -0.14685       -2.12724
C          4.09240        1.68831       -1.20588
H          4.27821        2.26167       -2.11924
H          3.50881        2.29989       -0.51651
H          5.04694        1.45422       -0.73126
H          2.44050        0.61955       -1.85667
N          0.04034        2.10145        1.85172
H         -0.87081        2.00804        1.40812
C          1.02172        2.56676        0.87778
H          0.79792        3.54531        0.42642
H          2.00640        2.62609        1.35438
H          1.08161        1.82793        0.07278
H         -0.05763        2.76546        2.61173
