40
2msa1dma1eda_163.log	Energy: -1038020.3151876
S         -2.77858       -0.71329        0.25558
O         -2.56087       -1.28278       -1.06899
O         -2.72683        0.84441        0.22880
O         -1.90751       -1.23113        1.32201
C         -4.47176       -0.96176        0.72884
H         -5.10794       -0.50697       -0.03012
H         -4.63523       -2.03871        0.77492
H         -4.62929       -0.50114        1.70341
S          0.49202        2.11932       -0.53658
O          0.42397        1.05833       -1.57251
O          1.83464        2.37774       -0.00409
O         -0.49240        1.83325        0.57379
H         -1.75183        1.24803        0.34520
C         -0.07793        3.62059       -1.31013
H         -1.07745        3.44512       -1.70877
H         -0.09117        4.40464       -0.55307
H          0.61844        3.87010       -2.11096
N          2.49467       -0.18285        1.51564
C          3.78760       -0.79417        1.79048
C          1.74315        0.15387        2.72348
H          2.61938        0.67298        0.97304
H          3.63802       -1.75166        2.30194
H          4.29652       -0.99099        0.84452
H          4.43002       -0.16602        2.42717
H          1.46734       -0.76564        3.25204
H          2.31879        0.78827        3.41408
H          0.83018        0.68400        2.44102
H          0.99951       -3.37899       -0.36543
H         -0.24756       -2.71695       -1.44719
H          1.75811       -3.11060       -2.77412
H          1.50388       -1.37063       -2.61614
H          3.56552       -2.92760       -1.26005
H          3.68867       -1.49452       -2.04538
H         -0.20298       -1.42867        0.52365
H          1.45830       -1.07619        0.44680
C          0.72742       -2.52456       -0.99241
C          1.78157       -2.27308       -2.06227
N          0.59069       -1.33675       -0.12577
N          3.08915       -2.05321       -1.45090
H          0.40565       -0.49862       -0.71337
