40
2msa1dma1eda_233.log	Energy: -1038018.4372275
S         -0.05073        2.52936        0.30796
O          0.57609        3.69635       -0.27738
O          0.82917        1.45524        0.79890
O         -1.05044        1.93454       -0.74438
C         -1.09949        3.00481        1.66381
H         -0.45386        3.38937        2.45380
H         -1.78220        3.77657        1.30864
H         -1.64346        2.11831        1.99436
S         -2.48697       -1.24269       -0.09855
O         -1.45656       -2.09424        0.55333
O         -2.47796       -1.31666       -1.56448
O         -2.40749        0.17924        0.40068
H         -1.62854        1.16855       -0.33617
C         -4.06266       -1.83244        0.48715
H         -4.16432       -2.87302        0.17847
H         -4.08068       -1.74745        1.57356
H         -4.84190       -1.21830        0.03574
N          3.04288       -1.91603        1.15481
C          2.26886       -2.32400        2.32535
C          3.74159       -0.64626        1.35143
H          3.71117       -2.63933        0.91216
H          1.47211       -1.59304        2.49844
H          1.79878       -3.29309        2.14096
H          2.87454       -2.38927        3.24187
H          3.00395        0.14828        1.50485
H          4.41966       -0.66135        2.21814
H          4.30310       -0.40610        0.44667
H          0.99399       -1.94895       -2.35907
H         -0.19193       -0.65255       -2.19187
H          1.66421        0.17960       -3.53864
H          1.67008        1.01622       -1.98853
H          3.51009       -1.12432       -2.76314
H          3.85926        0.38234       -2.24093
H          0.10826       -1.61353       -0.08370
H          1.81145       -1.48502       -0.10819
C          0.82714       -0.95337       -1.93760
C          1.84475        0.04541       -2.46280
N          0.91184       -1.06885       -0.46231
N          3.20494       -0.38490       -2.13818
H          0.84807       -0.13300       -0.02567
