37
2msa1ma1eda_140.log	Energy: -1013362.0982114
S          1.81152       -1.34246       -0.54911
O          2.02549       -1.73923        0.85240
O          2.66057       -0.24012       -1.02690
O          0.35176       -1.01067       -0.82000
C          2.15044       -2.77112       -1.56151
H          1.95676       -2.51063       -2.60194
H          3.19881       -3.03313       -1.41681
H          1.50310       -3.58556       -1.23546
S         -2.66213       -0.52482        0.41866
O         -3.00298        0.18520       -0.81226
O         -1.99200        0.25375        1.45846
O         -1.84540       -1.83039        0.10030
H         -0.90412       -1.59207       -0.24290
C         -4.12857       -1.26494        1.09109
H         -4.80183       -0.44805        1.35238
H         -4.57264       -1.90438        0.32886
H         -3.85089       -1.83657        1.97609
N          2.39913        0.98172        2.16742
H          2.30243        1.14562        3.16434
C          3.69683        1.46517        1.67926
H          4.55172        1.02128        2.20418
H          3.77869        1.21304        0.61938
H          3.75046        2.55243        1.78939
H          2.33425       -0.02774        2.01495
H          0.99021        3.46146       -0.33276
H          1.65399        2.04544       -1.20672
H         -0.14762        3.26030       -2.53026
H         -0.53888        1.57356       -2.19582
H         -2.00015        3.83265       -1.34753
H         -2.34167        2.23875       -1.07788
H          1.10012        1.49509        1.12735
H         -0.53719        1.90331        0.75062
C          0.76088        2.47749       -0.75001
C         -0.40786        2.55778       -1.73165
N          0.36097        1.59301        0.36526
N         -1.62292        2.95365       -1.02195
H          0.21413        0.63847       -0.00645
