43
2msa1eda1tma_23.log	Energy: -1062693.0627668
S         -2.55155       -0.19725       -0.56906
O         -2.75955       -1.52429       -1.16582
O         -2.11044        0.85520       -1.51696
O         -1.63583       -0.25482        0.62708
C         -4.12368        0.35137        0.07589
H         -4.82156        0.42957       -0.75807
H         -4.47356       -0.38331        0.80144
H         -3.98136        1.32363        0.55017
S          3.01708        0.18830       -0.28994
O          3.24959       -1.14396       -0.87126
O          1.96642        0.17094        0.77638
O          2.74308        1.25962       -1.29041
C          4.53585        0.66720        0.52065
H          4.77539       -0.08528        1.27230
H          5.31920        0.71462       -0.23614
H          4.38925        1.64261        0.98493
H          0.74887        3.68960        0.55868
H         -0.14769        3.96626       -0.95766
H         -1.54717        4.41620        1.03509
H         -2.20992        3.11032        0.04423
H         -1.95859        2.81725        2.61667
H         -1.46541        1.55507        1.68258
H          1.12265        1.89172       -1.03798
H          0.43432        1.34583        0.30876
C         -0.07979        3.34334       -0.06248
C         -1.38576        3.37998        0.72282
N          0.23525        1.96319       -0.49465
N         -1.29568        2.53454        1.90622
H         -0.55594        1.54396       -1.02218
N         -0.15364       -2.56806        0.54222
C          0.38725       -2.71288       -0.83887
H         -0.41297       -2.47105       -1.53955
H          1.24205       -2.04480       -0.95990
H          0.71353       -3.74675       -0.97388
C          0.91441       -2.67669        1.56856
H          1.63085       -1.87152        1.40105
H          0.45945       -2.57199        2.55460
H          1.39056       -3.65501        1.47433
C         -1.26147       -3.52472        0.78769
H         -1.67611       -3.33563        1.77867
H         -2.02820       -3.35960        0.03033
H         -0.86563       -4.54127        0.73425
H         -0.57912       -1.61209        0.60708
