42
2msa2eda_20.log	Energy: -1072773.8756670
S          2.88895       -0.59157       -0.49924
O          2.73945       -0.04972        0.86853
O          2.42780        0.36511       -1.54070
O          2.25334       -1.93653       -0.65207
H          0.63102       -2.08516       -0.50669
C          4.62669       -0.85771       -0.78871
H          5.13408        0.10206       -0.69003
H          4.98965       -1.56411       -0.04208
H          4.74856       -1.25975       -1.79443
S         -3.15386        0.01724       -0.32375
O         -2.97207        1.38407        0.19401
O         -3.29016       -1.02810        0.71149
O         -2.06036       -0.34387       -1.30689
H         -0.72173        1.01470       -1.13817
C         -4.65759        0.00953       -1.28368
H         -4.56526        0.75826       -2.07050
H         -4.79364       -0.98492       -1.70871
H         -5.47992        0.25802       -0.61221
H         -1.67738       -2.65539        1.28680
H         -0.15640       -3.59739        1.30180
H         -0.09624       -1.96609        3.06492
H          1.13964       -1.56633        1.85660
H         -1.47653       -0.22852        1.97455
H         -0.04951        0.37097        2.52855
H         -0.66160       -3.07237       -0.90495
H         -0.99193       -1.48283       -0.62828
C         -0.59884       -2.61534        1.12062
C          0.06211       -1.59987        2.04069
N         -0.38934       -2.28619       -0.31814
N         -0.46597       -0.24777        1.83902
H          0.14078        3.36342       -1.16386
H         -1.18689        2.99365       -0.03444
H          0.57310        4.33671        1.06794
H          0.39294        2.77394        1.83489
H          2.41201        2.03472        0.87809
H          2.55351        3.38267       -0.06169
H          0.94819        1.13949       -0.95192
H         -0.07607        0.80363        0.34677
C         -0.12979        2.82392       -0.25122
C          0.74923        3.26463        0.92176
N          0.02737        1.37524       -0.52905
N          2.17274        3.02176        0.80578
