37
2msa1ma1eda_216.log	Energy: -1013361.7018325
S         -2.58991       -0.49170        0.62008
O         -3.98952       -0.35114        0.97206
O         -1.75584        0.71856        0.58515
O         -2.50612       -1.19094       -0.78473
H         -1.62020       -0.99622       -1.32282
C         -1.82040       -1.65377        1.72057
H         -1.86728       -1.22095        2.72080
H         -2.39257       -2.58077        1.67765
H         -0.78429       -1.80529        1.40524
S          2.19144       -1.01769        0.36941
O          1.15762       -2.05382        0.52697
O          2.17508        0.05377        1.38623
O          2.18183       -0.44940       -1.03142
H          1.40627        0.98559       -1.25895
C          3.77446       -1.82989        0.51518
H          3.83523       -2.60232       -0.25147
H          4.55764       -1.08393        0.37957
H          3.83139       -2.27121        1.51052
N          0.49474        2.46318        1.15012
H         -0.47507        2.20527        1.32509
C          0.86793        3.69707        1.84368
H          0.72334        3.63745        2.92848
H          1.92210        3.91533        1.65355
H          0.27291        4.53158        1.46294
H          1.05362        1.66882        1.47816
H          0.42986        0.50496       -3.73113
H         -1.33650        0.49883       -3.63552
H         -0.66591        2.56048       -2.67625
H         -1.17736        1.52529       -1.32958
H          1.48803        2.49525       -1.95316
H          0.71950        2.28072       -0.38397
H         -0.51392       -1.59387       -2.94339
H          0.45199       -0.95190       -1.79478
C         -0.42146        0.44995       -3.03770
C         -0.42377        1.65880       -2.10895
N         -0.43581       -0.81747       -2.29154
N          0.87706        1.88257       -1.41911
