38
2msa2dma_75.log	Energy: -1003284.3103775
S         -3.28504       -0.84201        0.05968
O         -2.14677       -0.86878        1.01597
O         -3.13590       -1.74357       -1.08747
O         -3.60417        0.57844       -0.32710
H         -2.28672        1.44345       -0.15130
C         -4.72342       -1.38828        0.97246
H         -4.86467       -0.72773        1.82811
H         -5.58471       -1.34636        0.30506
H         -4.54407       -2.41254        1.30083
S          1.55186       -0.21828       -0.58890
O          0.80834        0.90238       -1.20798
O          1.92309        0.01524        0.82604
O          2.78461       -0.56487       -1.39785
H          3.99185       -0.46170       -0.60745
C          0.50696       -1.65120       -0.65699
H         -0.38025       -1.46129       -0.04419
H          0.21956       -1.81526       -1.69557
H          1.07305       -2.49922       -0.27014
N          4.87394       -0.39712        0.05949
C          4.72419       -1.44514        1.09623
C          4.93284        0.97615        0.61209
H          5.69968       -0.58165       -0.50748
H          3.77585       -1.26274        1.60384
H          4.69378       -2.41902        0.60685
H          5.55868       -1.40156        1.79908
H          3.98851        1.15562        1.12796
H          5.77790        1.06773        1.29758
H          5.03441        1.68249       -0.21231
N         -1.39988        2.01899       -0.01275
C         -1.08588        2.07308        1.42984
C         -1.56635        3.33492       -0.65347
H         -0.62713        1.51012       -0.48996
H         -1.87210        2.62953        1.94398
H         -1.05839        1.04752        1.79837
H         -0.11858        2.55819        1.57237
H         -2.40017        3.86022       -0.18443
H         -0.64781        3.91441       -0.54301
H         -1.77994        3.18341       -1.71160
