40
2msa1dma1eda_458.log	Energy: -1038009.9076795
S          1.32146       -1.87781       -0.05534
O          0.75433       -2.58390        1.10075
O          2.29312       -0.79549        0.30894
O          0.28611       -1.35718       -0.99435
C          2.28602       -3.06426       -0.97982
H          3.07055       -3.44383       -0.32479
H          1.62156       -3.87130       -1.28973
H          2.71686       -2.56416       -1.84744
S         -2.66433       -0.07264        0.53075
O         -1.70052        0.52587        1.45780
O         -2.80591        0.47636       -0.79970
O         -4.10830        0.06067        1.26404
H         -3.96382        0.41644        2.15240
C         -2.45412       -1.82513        0.44966
H         -2.34771       -2.20947        1.46349
H         -3.32723       -2.23606       -0.05735
H         -1.53209       -1.98656       -0.11745
N          0.15014        1.29827       -2.33356
C          1.42959        1.12429       -3.01516
C         -0.82046        2.06592       -3.10475
H         -0.21961        0.37150       -2.12072
H          1.90956        2.09938       -3.15268
H          2.07992        0.49712       -2.39907
H          1.32270        0.65287       -4.00367
H         -0.45904        3.09214       -3.23090
H         -0.99416        1.64115       -4.10544
H         -1.76994        2.08959       -2.56622
H          2.19717        3.04958        0.39940
H          0.60767        3.42638        1.11151
H          2.19521        3.20059        2.91290
H          1.11582        1.80241        2.96872
H          3.58016        1.33933        3.15928
H          2.92919        0.53159        1.89146
H          0.51263        1.65131       -0.68315
H          1.45827        0.68016        0.30351
C          1.38617        2.66430        1.02141
C          1.92897        2.27565        2.39129
N          0.79871        1.49357        0.33407
N          3.12780        1.46023        2.26120
H         -0.04181        1.15716        0.82183
