37
2msa1ma1eda_378.log	Energy: -1013356.8930392
S         -3.08203        0.00815        0.63813
O         -4.53493       -0.03905        0.79546
O         -2.59665        0.62683       -0.62551
O         -2.42003       -1.34064        0.82423
H         -1.56726       -1.64389       -0.37386
C         -2.43353        1.01562        1.96415
H         -2.88857        2.00369        1.88087
H         -2.71166        0.55014        2.91031
H         -1.34918        1.06885        1.85316
S          1.10247        1.16451       -0.52265
O          0.72308        0.72865        0.83448
O          1.01726        0.05443       -1.52470
O          2.48589        1.75704       -0.56626
H          3.43813        0.52878       -0.64384
C         -0.02127        2.44028       -1.02408
H         -1.02791        2.01175       -0.97208
H          0.09063        3.27007       -0.32551
H          0.23931        2.74584       -2.03743
N         -0.99849       -1.83134       -1.28407
H         -0.27130       -1.08894       -1.35465
C         -1.90361       -1.79451       -2.45399
H         -1.33495       -1.93385       -3.37460
H         -2.65503       -2.57797       -2.35069
H         -2.39583       -0.82208       -2.44509
H         -0.52894       -2.72899       -1.19789
H          5.09908       -1.62085        0.66455
H          5.22466        0.13729        0.94159
H          3.84367       -1.08614        2.71170
H          2.96486        0.21050        1.88984
H          2.33529       -2.55187        1.81154
H          1.47628       -1.23877        1.28006
H          4.54924       -0.55492       -1.38452
H          3.13015       -1.11462       -0.68534
C          4.53926       -0.68343        0.72184
C          3.40979       -0.77955        1.75448
N          3.91034       -0.44233       -0.60181
N          2.38409       -1.69993        1.26849
