38
2msa1ma1tma_32.log	Energy: -1003283.5303204
S          0.60757        1.60259       -0.60891
O          0.14546        1.10629        0.72474
O         -0.41597        1.49678       -1.65625
O          1.90544        0.95041       -0.96771
C          0.98561        3.33112       -0.38983
H          0.06398        3.84227       -0.11050
H          1.73190        3.42347        0.39948
H          1.36894        3.71754       -1.33443
S         -2.98662       -0.47496        0.45378
O         -4.18673       -0.91473        1.13444
O         -1.96610       -1.46244        0.09644
O         -2.32461        0.64776        1.35406
H         -1.36913        0.82409        1.08387
C         -3.43337        0.41146       -1.02267
H         -3.88775       -0.30858       -1.70470
H         -4.15220        1.18231       -0.74495
H         -2.52466        0.84368       -1.44888
N          3.74336       -0.06147        1.22635
H          4.74838       -0.01316        1.35654
C          3.04657        0.38555        2.43629
H          3.39414        1.35384        2.82418
H          1.97999        0.47867        2.21479
H          3.16943       -0.35875        3.22970
H          3.50191        0.55372        0.45232
N          1.62216       -1.74936       -0.66857
C          0.59372       -1.97215       -1.71876
H         -0.33875       -1.50837       -1.39657
H          0.94321       -1.51724       -2.64583
H          0.44746       -3.04682       -1.84678
C          2.92302       -2.36627       -1.01735
H          3.25247       -1.96877       -1.97845
H          3.63594       -2.09631       -0.23727
H          2.79712       -3.44930       -1.08357
C          1.14918       -2.18157        0.67297
H          1.92417       -1.92656        1.39497
H          0.21783       -1.66137        0.89489
H          0.97459       -3.25965        0.64946
H          1.77882       -0.71232       -0.64039
