37
2msa1ma1eda_27.log	Energy: -1013375.4934678
S          2.81944        0.05672       -0.34326
O          2.48271        1.04193       -1.40018
O          2.99112       -1.33049       -0.79461
O          1.82963        0.14555        0.79668
C          4.37633        0.59213        0.34611
H          5.11602        0.58046       -0.45471
H          4.25171        1.60029        0.74128
H          4.65835       -0.10181        1.13807
S         -2.43821       -0.84894       -0.40262
O         -1.66057       -1.98690       -0.95682
O         -2.32121        0.39173       -1.21391
O         -2.11622       -0.61148        1.03287
C         -4.15493       -1.32173       -0.48718
H         -4.75412       -0.50995       -0.07461
H         -4.40415       -1.49225       -1.53456
H         -4.28670       -2.23485        0.09331
N          0.35107       -2.12021        0.92165
H          0.92355       -1.23719        0.88137
H         -0.36101       -1.98195        1.64142
C          1.22022       -3.29396        1.14085
H          0.62465       -4.20616        1.10034
H          1.97909       -3.29302        0.35873
H          1.70315       -3.20535        2.11419
H         -0.20117       -2.18384        0.04161
H          0.29455        3.71840        0.19788
H         -0.77536        3.65057       -1.22766
H         -1.98642        4.11781        0.95744
H         -2.59003        2.69938        0.08935
H         -1.78678        2.67009        2.67246
H         -1.76194        1.32869        1.71605
H          0.80813        1.74640       -1.14464
H          0.25414        1.35384        0.32634
C         -0.52453        3.17390       -0.27728
C         -1.73656        3.09715        0.65271
N         -0.04195        1.80276       -0.55447
N         -1.41242        2.28107        1.81802
H         -0.80908        1.22304       -0.95946
