42
2msa2eda_595.log	Energy: -1072738.7395419
S          3.80315        0.13124        0.47648
O          4.30576       -0.34226        1.74671
O          3.78247       -0.74419       -0.68964
O          4.70402        1.42308        0.05082
H          4.99688        1.28613       -0.86098
C          2.21598        0.88159        0.70342
H          1.53252        0.08525        1.01044
H          2.30476        1.65300        1.46745
H          1.88139        1.29657       -0.24652
S         -0.28934       -1.30282       -1.03054
O         -0.05282       -1.45788        0.42724
O         -0.18536        0.11883       -1.46377
O         -1.59359       -1.90491       -1.44888
H         -2.69139       -0.90935       -0.66233
C          0.98620       -2.20480       -1.87890
H          0.82748       -2.08109       -2.95026
H          1.95091       -1.79505       -1.57311
H          0.90024       -3.25331       -1.59313
H         -2.94056        2.39749        0.95990
H         -1.92053        3.82209        1.14748
H         -3.02894        3.92901       -0.96249
H         -1.29791        3.69767       -1.25654
H         -2.93803        2.29665       -2.56899
H         -1.73376        1.45283       -1.86167
H         -0.81630        1.62200        1.72174
H         -0.62150        1.39565        0.09507
C         -2.01427        2.87909        0.59571
C         -2.20769        3.21051       -0.87945
N         -0.81523        2.08364        0.82010
N         -2.56539        2.01781       -1.66758
H         -4.65879        0.01004        1.39411
H         -4.92204       -1.29759        0.20771
H         -4.17230       -2.10512        2.52995
H         -3.14317       -2.64610        1.19959
H         -2.27614       -1.23527        3.38682
H         -1.43989       -1.38239        1.96735
H         -3.39291        0.62912       -0.63381
H         -2.40115        0.14138        0.58888
C         -4.17939       -0.79369        0.82962
C         -3.45964       -1.76624        1.77313
N         -3.14830       -0.19217       -0.03808
N         -2.32120       -1.08707        2.38806
