26
2msa2a_34.log	Energy: -904644.0279400
S          2.54135        0.15620        0.00287
O          3.85342        0.70422       -0.27197
O          2.26387       -1.25131       -0.25799
O          1.48706        1.04375       -0.79726
H          0.65007        0.51952       -0.98028
C          2.11829        0.49642        1.69903
H          2.79379       -0.09314        2.32035
H          2.26538        1.56147        1.87850
H          1.07915        0.19767        1.85203
S         -1.41585       -0.93886       -0.13456
O         -1.02891       -0.38833        1.19855
O         -0.79599       -0.14875       -1.24626
O         -2.88965       -1.02882       -0.28550
H         -3.60139        0.45796        0.64696
C         -0.74282       -2.57688       -0.24978
H          0.34219       -2.48665       -0.16813
H         -1.16048       -3.17056        0.56340
H         -1.02949       -2.98598       -1.21863
N         -3.22104        1.27860        1.15317
H         -2.40261        0.87650        1.64267
H         -3.89175        1.70962        1.78104
H         -2.83229        1.94889        0.40398
N         -1.97099        2.58842       -0.92057
H         -1.17025        3.16857       -0.68579
H         -2.48463        3.06609       -1.65468
H         -1.59268        1.72029       -1.31465
