25
2msa1ma_67.log	Energy: -893788.2204515
S         -2.08169       -0.40503        0.00297
O         -2.48463        0.84208       -0.60973
O         -1.17349       -0.34863        1.15909
O         -1.45991       -1.39037       -1.07337
H         -0.46385       -1.34896       -1.05680
C         -3.51887       -1.33343        0.46605
H         -4.06879       -0.72545        1.18500
H         -4.11385       -1.49893       -0.43205
H         -3.19697       -2.27444        0.90991
S          2.08531       -0.45038       -0.10383
O          2.47548        0.80683       -0.70473
O          1.17975       -1.32617       -0.86422
O          1.46949       -0.22591        1.33976
H          0.47357       -0.20674        1.29927
C          3.53168       -1.38053        0.32472
H          4.05811       -1.58603       -0.60785
H          4.14380       -0.76534        0.98414
H          3.22104       -2.30297        0.81326
N          0.01430        2.95150       -0.76669
H         -0.82032        2.47772       -1.09533
C         -0.03395        3.11947        0.68017
H         -0.18248        2.18983        1.25203
H          0.89785        3.57894        1.02252
H         -0.84994        3.80031        0.94124
H          0.81721        2.39248       -1.03489
