28
2msa1dma_22.log	Energy: -918465.1304265
S         -2.79373       -0.48715        0.18927
O         -2.52107        0.69457        0.99972
O         -3.93854       -1.32329        0.48675
O         -1.51065       -1.43553        0.22326
H         -0.67984       -0.89222        0.35568
C         -2.85661        0.01032       -1.51882
H         -3.71416        0.67600       -1.62521
H         -1.92391        0.52739       -1.75496
H         -2.98699       -0.88496       -2.12653
S          0.96742        1.19568       -0.18321
O          0.19608        1.24788       -1.42650
O          2.41991        1.42311       -0.30610
O          0.74970       -0.14506        0.54068
H          1.98317       -1.02040        0.40727
C          0.29742        2.40408        0.93592
H          0.41798        3.38199        0.46868
H         -0.75634        2.16269        1.08823
H          0.85203        2.35107        1.87261
N          2.89609       -1.58102        0.24380
C          3.96399       -0.97376        1.07468
C          3.18289       -1.55014       -1.21276
H          2.72036       -2.53919        0.54308
H          4.02944        0.07887        0.79712
H          3.68251       -1.05952        2.12438
H          4.91029       -1.48690        0.89450
H          3.30034       -0.50430       -1.49910
H          4.09133       -2.11755       -1.42213
H          2.33269       -1.97872       -1.74363
