37
2msa1ma1eda_153.log	Energy: -1013362.4058793
S          2.20399        0.33922       -0.68022
O          1.58191        1.60855       -1.13581
O          2.09373       -0.78383       -1.61635
O          1.70228       -0.01807        0.70117
H          0.78080       -1.21796        0.89630
C          3.93921        0.68580       -0.46158
H          4.34659        0.97114       -1.43174
H          4.04460        1.50022        0.25511
H          4.42033       -0.22061       -0.09394
S         -1.00014       -2.19541        0.07357
O         -1.99578       -3.05751        0.67239
O          0.14057       -1.97806        1.13904
O         -1.42905       -0.88079       -0.43235
H         -1.23771        0.85120        0.14203
C         -0.18326       -3.03434       -1.26009
H          0.20439       -3.97551       -0.86992
H         -0.93318       -3.21459       -2.03128
H          0.61868       -2.38633       -1.62324
N          0.31175        1.67763        2.74284
H          1.13668        1.25130        2.31965
C         -0.41625        0.67214        3.52795
H          0.16618        0.26083        4.36088
H         -1.33253        1.11334        3.92870
H         -0.69483       -0.15789        2.87407
H          0.62092        2.44238        3.33331
H         -1.60641        2.27683       -2.33409
H         -2.97135        3.33400       -1.96219
H         -1.24564        3.77730       -0.34067
H         -2.58570        2.93811        0.48334
H          0.01639        1.78226       -0.39209
H         -0.50871        1.93743        1.19140
H         -3.97839        1.29480       -2.24393
H         -2.87589        0.45554       -1.37371
C         -2.41445        2.46127       -1.60789
C         -1.79777        2.83710       -0.26622
N         -3.34754        1.35263       -1.45421
N         -0.84438        1.80276        0.19717
