38
2msa1ma1tma_72.log	Energy: -1003280.0070179
S         -0.74870        1.88946       -0.44039
O         -0.47508        0.70991       -1.43256
O         -0.11619        3.12112       -0.89430
O         -0.40257        1.47240        0.93526
H          1.22251        1.43891        1.43335
C         -2.50794        1.98750       -0.56137
H         -2.75639        2.23605       -1.59341
H         -2.90115        1.00243       -0.26614
H         -2.82791        2.77996        0.11614
S          2.00177       -1.49932       -0.15101
O          0.75766       -2.20717        0.14394
O          2.82643       -1.14316        1.04218
O          1.79437       -0.26545       -0.99719
H          0.44385        0.26437       -1.26435
C          3.02752       -2.56960       -1.14007
H          2.47698       -2.81831       -2.04756
H          3.95132       -2.04283       -1.37826
H          3.23279       -3.46781       -0.55714
N          2.25174        1.41057        1.61285
H          2.42373        1.71051        2.56936
C          2.94958        2.26584        0.62073
H          4.01280        2.30101        0.85782
H          2.80031        1.80912       -0.35719
H          2.51481        3.26472        0.63177
H          2.54128        0.39836        1.49679
N         -3.15164       -1.06898        0.32077
C         -2.38782       -1.27115        1.54388
H         -1.32429       -1.13107        1.34103
H         -2.70032       -0.54082        2.29722
H         -2.53017       -2.28624        1.95990
C         -4.57230       -1.26053        0.54740
H         -4.92454       -0.56540        1.31660
H         -5.12642       -1.06167       -0.37578
H         -4.81234       -2.28954        0.87742
C         -2.66514       -1.93080       -0.74681
H         -3.18437       -1.69074       -1.68049
H         -1.59449       -1.77137       -0.88782
H         -2.82825       -3.00184       -0.52348
