37
2msa1ma1eda_434.log	Energy: -1013351.7599051
S          2.74347       -0.07381        0.38804
O          2.07812       -1.37712        0.54645
O          2.76457        0.79273        1.55369
O          2.16939        0.66820       -0.87078
H          1.14278        0.76807       -0.86550
C          4.39809       -0.36080       -0.18628
H          4.35185       -0.96449       -1.09189
H          4.86419        0.60540       -0.37733
H          4.92030       -0.88966        0.61159
S         -1.28941        1.71378       -0.18623
O         -2.67860        1.51498       -0.61547
O         -0.34097        0.84512       -0.97916
O         -1.06019        1.51137        1.26971
H         -0.62275       -0.16410        1.42701
C         -0.83529        3.39703       -0.54654
H         -0.97641        3.56173       -1.61477
H         -1.48693        4.04896        0.03542
H          0.20744        3.53999       -0.26143
N         -0.72051       -1.51528       -2.94549
H         -0.85214       -0.63260       -2.45909
C         -0.22185       -2.53389       -2.03320
H         -0.93780       -2.83969       -1.24893
H          0.05453       -3.43429       -2.59175
H          0.68629       -2.16723       -1.54456
H         -1.61249       -1.78713       -3.34217
H         -1.58107       -2.94972        1.83291
H         -1.50811       -1.67719        3.07987
H         -3.82151       -1.89593        2.01697
H         -3.11068       -0.29019        1.82797
H         -3.72634       -2.12038       -0.26684
H         -3.25228       -0.53075       -0.36590
H          0.34562       -1.54102        1.32432
H         -0.88293       -1.27469        0.24089
C         -1.66926       -1.87641        2.01864
C         -3.01873       -1.33778        1.52367
N         -0.61716       -1.19255        1.23440
N         -3.06844       -1.43155        0.06981
