42
2msa2eda_542.log	Energy: -1072744.4787435
S          2.38007       -0.99375       -0.59851
O          3.49517       -0.51809       -1.40759
O          1.07979       -0.28538       -0.95032
O          2.58951       -0.89901        0.87764
H          1.56260        0.16538        1.53631
C          2.09755       -2.71613       -0.95023
H          1.89684       -2.81420       -2.01755
H          3.00763       -3.25379       -0.68255
H          1.25227       -3.06367       -0.35281
S         -1.59218       -1.76481        0.52750
O         -1.39191       -0.67490        1.48853
O         -0.90245       -3.01785        0.79253
O         -1.24528       -1.24463       -0.92688
H         -0.27372       -0.90103       -0.96840
C         -3.33019       -2.04998        0.31833
H         -3.71817       -2.34937        1.29250
H         -3.80023       -1.12956       -0.03848
H         -3.45055       -2.85420       -0.40741
H          0.79828        3.02156        2.04543
H          2.18257        2.18411        2.80209
H          2.90625        3.53426        0.88927
H          3.21063        1.82073        0.58502
H          2.08616        3.26915       -1.20493
H          1.45068        1.79550       -0.94731
H          0.28465        0.68299        2.52345
H          0.25132        0.95928        0.92099
C          1.56351        2.25450        1.90481
C          2.41905        2.57669        0.68387
N          0.87382        0.94849        1.73550
N          1.59516        2.70951       -0.51669
H         -3.90455        2.53945        0.03035
H         -3.26226        1.07578        0.77931
H         -1.54081        2.72252        0.83107
H         -1.08849        1.43099       -0.30365
H         -0.63311        3.62194       -1.14062
H         -1.77380        2.93452       -2.08009
H         -3.88289        1.55408       -2.04024
H         -2.82340        0.37010       -1.61353
C         -3.18928        1.72189       -0.10325
C         -1.77241        2.28431       -0.14819
N         -3.58880        0.95125       -1.28099
N         -1.60481        3.32100       -1.15575
