30
2msa1eda_160.log	Energy: -953180.5668756
S          2.37794       -0.12473       -0.10547
O          2.59682        1.28214       -0.35926
O          1.61238       -0.89138       -1.09949
O          1.72443       -0.35401        1.32073
H          0.74549       -0.53477        1.25472
C          3.94345       -0.91977        0.14527
H          4.50751       -0.79662       -0.77978
H          4.44719       -0.42078        0.97306
H          3.77049       -1.97308        0.36229
S         -1.61127       -1.49607       -0.02185
O         -2.38566       -0.51692       -0.75267
O         -0.83263       -1.03198        1.13732
O         -0.63628       -2.29681       -0.98704
H          0.20980       -1.78665       -1.10974
C         -2.65542       -2.82965        0.49768
H         -3.39826       -2.39990        1.17051
H         -3.13403       -3.24774       -0.38763
H         -2.04462       -3.57142        1.01047
H         -2.06739        3.42801        1.29835
H         -2.40674        1.70510        1.18503
H         -0.00664        1.99386        1.34774
H         -0.40688        1.41914       -0.28256
H          0.24435        4.19046        0.38635
H          1.07849        3.16159       -0.57264
H         -2.26139        3.44586       -1.14942
H         -2.83331        1.91821       -1.08343
C         -1.97277        2.55127        0.64214
C         -0.48831        2.27595        0.39610
N         -2.76157        2.78583       -0.55951
N          0.14657        3.41508       -0.26192
