41
2msa1dma1tma_119.log	Energy: -1027938.4198524
S          2.86259       -0.16538       -0.28060
O          2.29374        1.03011       -0.97827
O          2.88054       -1.37024       -1.12266
O          2.19239       -0.38913        1.03624
C          4.55190        0.25894        0.09595
H          5.06202        0.46357       -0.84547
H          4.54962        1.14181        0.73534
H          5.00930       -0.58898        0.60588
S         -0.85016        2.14206        0.15589
O         -1.03167        1.30931        1.34437
O         -1.34348        1.58661       -1.10199
O          0.63349        2.61911        0.02056
H          1.28672        1.91229       -0.36921
C         -1.62040        3.71766        0.44298
H         -1.18307        4.15785        1.33865
H         -1.45152        4.34742       -0.42981
H         -2.68472        3.52830        0.58567
N         -3.77386       -1.72853       -0.41031
C         -3.73470       -1.13396       -1.74179
C         -4.06054       -0.73807        0.61974
H         -4.48512       -2.45178       -0.38803
H         -2.94586       -0.37633       -1.77609
H         -3.50693       -1.90265       -2.48618
H         -4.67911       -0.64061       -2.02759
H         -3.24782       -0.00586        0.65225
H         -5.00347       -0.19029        0.45034
H         -4.11640       -1.22374        1.59874
N          0.11275       -2.03088        0.57443
C         -0.41877       -1.64655       -0.76147
H         -0.82766       -0.63861       -0.70116
H          0.40493       -1.66890       -1.47546
H         -1.21397       -2.34282       -1.03215
C          0.76678       -3.35927        0.52718
H          1.56415       -3.31576       -0.21599
H          1.19218       -3.57743        1.50745
H          0.02367       -4.11413        0.26083
C         -0.92998       -1.93915        1.62555
H         -0.50336       -2.27629        2.57126
H         -1.23343       -0.89504        1.70553
H         -1.78115       -2.55725        1.33261
H          0.87408       -1.33959        0.81426
