34
2msa1a1eda_186.log	Energy: -988699.6824313
S         -1.84733       -1.76713       -0.14427
O         -2.00141       -3.09126       -0.73013
O         -0.68665       -1.00785       -0.78457
O         -1.69544       -1.73080        1.33405
H         -0.25429       -1.06687        1.88530
C         -3.29526       -0.79683       -0.52008
H         -3.40505       -0.75496       -1.60415
H         -4.14987       -1.30120       -0.06825
H         -3.16579        0.19985       -0.09332
S         -0.60243        2.24418        0.07853
O          0.57298        1.96369        0.92309
O         -1.90310        2.13796        0.72610
O         -0.54366        1.38152       -1.21485
H         -0.65756        0.31943       -1.01475
C         -0.40227        3.86861       -0.60889
H          0.55733        3.91239       -1.12276
H         -1.22684        4.05113       -1.29742
H         -0.42994        4.57245        0.22337
N          0.69970       -0.65262        2.03254
H          0.65224        0.35699        1.82348
H          1.35560       -1.10978        1.30759
H          1.01745       -0.80940        2.98379
H          2.82148       -0.72799       -1.87369
H          1.85566        0.28362       -0.79616
H          4.19752        0.95760       -0.67004
H          3.68315        0.27975        0.87861
H          5.30491       -1.13750       -1.11077
H          5.69924       -0.77823        0.43333
H          1.33301       -2.06797       -0.57657
H          2.87217       -2.35343       -0.01719
C          2.62288       -0.49524       -0.81681
C          3.89589        0.02740       -0.16631
N          2.12705       -1.66432       -0.08307
N          4.92563       -1.01282       -0.17741
