34
2msa1a1eda_68.log	Energy: -988706.3603494
S         -2.70933        0.36117       -0.06667
O         -2.28268       -1.08920       -0.45454
O         -2.05353        1.34597       -0.93576
O         -2.58502        0.57700        1.37190
C         -4.42622        0.30193       -0.51326
H         -4.49753        0.06036       -1.57335
H         -4.91319       -0.45605        0.09928
H         -4.84097        1.29013       -0.31304
S          1.18506       -1.74775       -0.03953
O          2.19012       -1.19081        0.88890
O          1.11646       -1.03157       -1.33331
O         -0.16690       -1.84455        0.61430
H         -1.37343       -1.39142       -0.02788
C          1.65766       -3.42729       -0.39677
H          2.64213       -3.40674       -0.86441
H          1.68565       -3.97815        0.54335
H          0.91719       -3.85146       -1.07498
N          0.38832        0.94436        2.17791
H          0.58244        1.54391        2.97252
H          0.97075        0.11035        2.24525
H         -0.58704        0.65211        2.23143
H          1.88515        2.87029       -1.76557
H          1.22624        3.65869       -0.30778
H          3.66267        3.32789       -0.13131
H          2.79916        2.43289        1.12295
H          4.63776        1.28006       -0.30267
H          3.26733        0.42376       -0.04539
H         -0.19348        1.80571       -0.87252
H          1.07456        0.75307       -0.95801
C          1.69891        2.75240       -0.69599
C          3.00447        2.47064        0.04093
N          0.75122        1.63138       -0.50660
N          3.64065        1.26916       -0.47636
H          0.62496        1.42448        0.53522
