26
2msa2a_20.log	Energy: -904651.7346912
S          2.52706       -0.10923        0.17926
O          3.82649        0.53223        0.01859
O          2.49181       -1.57676        0.29615
O          1.55013        0.30354       -0.93876
H          0.67507       -1.09159       -1.25674
C          1.77419        0.54189        1.66565
H          2.36247        0.18537        2.51206
H          1.81288        1.63239        1.62851
H          0.74419        0.18126        1.72231
S         -2.32305       -0.03986        0.15431
O         -1.31105       -0.62764        1.05427
O         -2.34867       -0.71454       -1.17637
O         -2.20426        1.44545        0.02423
H         -0.88102        2.06556       -0.59469
C         -3.92552       -0.30439        0.88657
H         -4.06733       -1.37818        1.00953
H         -3.94405        0.19976        1.85276
H         -4.67854        0.11092        0.21690
N          0.03766        2.42264       -1.00279
H          0.38128        3.20932       -0.45864
H         -0.10357        2.71921       -1.96483
H          0.74334        1.60847       -0.97072
N          0.08360       -1.95907       -1.17378
H          0.39838       -2.67388       -1.82221
H         -0.91552       -1.68252       -1.30187
H          0.23182       -2.26881       -0.21169
