35
2msa1ma1dma_165.log	Energy: -978623.5928513
S         -0.09557       -1.84917       -0.16339
O          1.19992       -2.49566       -0.51473
O         -0.73719       -1.13991       -1.27954
O          0.12837       -0.94639        1.03052
H         -0.42561        0.38781        1.05979
C         -1.20998       -3.11255        0.39347
H         -1.37449       -3.80251       -0.43477
H         -0.75282       -3.62322        1.24104
H         -2.13347       -2.59812        0.68149
S         -0.18190        2.32498        0.05593
O         -0.37839        3.68550        0.50647
O         -0.80900        1.35476        1.12117
O          1.19777        1.88873       -0.23192
H          2.10759        0.41940       -0.11026
C         -1.15122        2.02530       -1.40193
H         -2.18636        2.27888       -1.17097
H         -0.76237        2.67448       -2.18735
H         -1.04900        0.96832       -1.65845
N         -3.45221       -0.62085        0.83170
H         -4.19178       -0.49851        1.51490
C         -3.96674       -0.45471       -0.52682
H         -4.42122        0.52824       -0.72638
H         -3.14669       -0.61142       -1.23238
H         -4.72400       -1.21938       -0.72435
H         -2.74981        0.08539        1.03149
N          2.82049       -0.33476       -0.04126
C          3.27147       -0.40714        1.36564
C          3.88949       -0.07571       -1.02548
H          2.31334       -1.22328       -0.27709
H          3.70616        0.55119        1.65304
H          2.39665       -0.62739        1.97725
H          4.01159       -1.20264        1.46430
H          4.35716        0.88519       -0.80668
H          4.63098       -0.87412       -0.97299
H          3.44557       -0.04932       -2.02041
