35
2msa1ma1dma_103.log	Energy: -978626.0635506
S          1.35770       -1.59899        0.09011
O          0.11434       -1.65304        0.94284
O          2.54327       -1.28077        0.89576
O          1.16261       -0.71142       -1.08060
C          1.56279       -3.25407       -0.54491
H          1.66605       -3.93203        0.30252
H          0.68328       -3.50609       -1.13818
H          2.46162       -3.27050       -1.16194
S         -2.65381        0.03829       -0.05516
O         -1.87742        0.65811       -1.13463
O         -2.68651        0.78089        1.20297
O         -2.21057       -1.43917        0.16169
H         -1.19528       -1.52725        0.46302
C         -4.31446       -0.22727       -0.62534
H         -4.75091        0.75568       -0.80423
H         -4.27459       -0.80819       -1.54617
H         -4.86287       -0.75688        0.15320
N          3.00970        1.63651       -1.00561
H          2.74722        0.70581       -1.33485
C          4.06233        1.52908        0.01415
H          5.01809        1.17273       -0.38871
H          4.22373        2.50488        0.48142
H          3.73293        0.81644        0.77311
H          3.33194        2.16968       -1.80661
N          0.45519        1.90506        0.04994
C         -0.29483        3.13594       -0.26458
C          0.57351        1.64156        1.50422
H         -0.01166        1.10980       -0.41213
H          0.24701        3.99514        0.13543
H         -0.39414        3.22402       -1.34617
H         -1.28612        3.06959        0.18463
H          1.04457        2.50741        1.97382
H         -0.42238        1.47393        1.91720
H          1.18981        0.75507        1.65370
H          1.43359        1.93266       -0.37383
