37
2msa1ma1eda_421.log	Energy: -1013352.3427547
S          2.84016       -0.55245       -0.27682
O          3.17204        0.17210        0.94809
O          2.23906        0.23507       -1.35600
O          1.97997       -1.81830        0.03492
H          1.07376       -1.59929        0.50792
C          4.30097       -1.34410       -0.90275
H          5.00063       -0.55187       -1.17008
H          4.71228       -1.97653       -0.11668
H          4.02602       -1.93057       -1.77893
S         -1.43281       -0.96384        0.52050
O         -2.19700        0.05234        1.26133
O         -0.15666       -1.33031        1.22111
O         -1.16097       -0.57866       -0.89801
H         -0.41375        0.85276       -1.12337
C         -2.41855       -2.44123        0.44530
H         -2.56973       -2.78959        1.46748
H         -3.37166       -2.17376       -0.01923
H         -1.87610       -3.18318       -0.14090
N         -4.86972       -0.21050       -0.25652
H         -5.83427       -0.01892       -0.01084
C         -4.46826        0.54766       -1.43781
H         -4.57786        1.64024       -1.34021
H         -3.41903        0.32605       -1.65381
H         -5.05959        0.22581       -2.30065
H         -4.28402        0.04550        0.53475
H         -0.67251        3.65964       -0.22638
H         -1.60787        2.20725        0.26285
H         -0.00950        2.88264        2.06099
H          0.38748        1.29981        1.41508
H          1.93416        3.71957        1.08602
H          2.41308        2.13412        1.03065
H         -0.41579        2.25735       -2.04462
H          0.93675        1.87870       -1.13739
C         -0.61644        2.59765        0.02509
C          0.36786        2.36687        1.17079
N         -0.09697        1.86266       -1.16369
N          1.69596        2.79583        0.74925
