29
2msa1a1ma_80.log	Energy: -929300.0332026
S         -2.26249       -0.56356       -0.04557
O         -2.92423        0.72513        0.28604
O         -1.54366       -1.16180        1.11031
O         -1.38734       -0.44483       -1.24605
C         -3.56495       -1.70572       -0.47494
H         -4.23207       -1.79551        0.38257
H         -4.09711       -1.30531       -1.33785
H         -3.11135       -2.66810       -0.71266
S          2.48461       -0.49652       -0.27001
O          3.73472       -0.90017       -0.88923
O          1.86138        0.76374       -0.62397
O          2.76904       -0.40830        1.33963
H          3.65103       -0.76823        1.50893
C          1.29382       -1.80337       -0.34437
H          0.90611       -1.82184       -1.36380
H          1.80473       -2.73221       -0.09027
H          0.46940       -1.58122        0.33990
N          0.08211        1.14346        2.18410
H         -0.48205        0.29373        2.07995
H         -0.22965        1.61991        3.02384
H          1.04899        0.86173        2.31924
N         -0.61474        2.12873       -0.34005
H         -0.23313        1.86669        0.61887
H         -0.45694        1.30117       -0.93511
C         -0.01413        3.35630       -0.88599
H         -0.46341        3.58832       -1.85190
H         -0.18645        4.18116       -0.19394
H          1.05602        3.19138       -1.00708
H         -1.63731        2.15087       -0.22173
