37
2msa1ma1eda_502.log	Energy: -1013349.5785315
S          2.58066       -0.27099       -0.22937
O          2.20297       -1.25822        0.80825
O          2.74719        1.11144        0.30571
O          1.66277       -0.29909       -1.40061
C          4.19160       -0.75591       -0.82916
H          4.10950       -1.75710       -1.25295
H          4.50485       -0.04014       -1.58930
H          4.88357       -0.75035        0.01330
S         -1.78704       -1.65684       -0.14337
O         -2.10646       -1.68365        1.27976
O         -1.71356       -0.37848       -0.82769
O         -2.95576       -2.50040       -0.89494
H         -3.49783       -2.92994       -0.21783
C         -0.34692       -2.62167       -0.47752
H          0.49121       -2.15967        0.06076
H         -0.53757       -3.63491       -0.12320
H         -0.16113       -2.58631       -1.55055
N         -0.81839        1.05470        2.19266
H         -1.38168        1.78420        2.61886
C          0.37834        0.75931        2.99585
H          0.14643        0.46680        4.02723
H          0.94307       -0.04157        2.51264
H          1.02545        1.64016        3.01884
H         -1.40627        0.22669        2.12459
H         -0.35940        3.87876       -0.07842
H          0.26044        3.42250       -1.68377
H         -2.15935        3.85923       -1.75000
H         -1.81266        2.17617       -2.16320
H         -3.65045        2.74070       -0.44750
H         -2.63817        1.51134       -0.10001
H          1.18349        1.93341       -0.03870
H         -0.31892        1.57500        0.62443
C         -0.38381        3.11239       -0.85662
C         -1.81338        2.90584       -1.33902
N          0.17317        1.87265       -0.27858
N         -2.68542        2.51838       -0.23342
H          0.13979        1.07747       -0.93112
