29
2msa1a1ma_100.log	Energy: -929296.5590278
S          1.55265        0.92243       -0.34175
O          0.89850       -0.21968       -1.06389
O          1.47104        0.76742        1.13613
O          1.02212        2.23816       -0.78487
H         -0.18120        2.83550        0.51710
C          3.26505        0.82207       -0.79270
H          3.61086       -0.18167       -0.52383
H          3.33659        0.98526       -1.86831
H          3.79836        1.59943       -0.24522
S         -2.41362       -0.48388       -0.00637
O         -2.63668        0.89116        0.48690
O         -1.88190       -1.43629        0.95145
O         -1.57408       -0.44310       -1.32202
H         -0.54371       -0.33442       -1.17582
C         -3.96168       -1.05703       -0.65812
H         -4.66205       -1.09684        0.17649
H         -4.30017       -0.35188       -1.41647
H         -3.80497       -2.04843       -1.08196
N         -0.60233        2.48640        1.39904
H         -1.45217        1.93324        1.15138
H         -0.80403        3.22583        2.06419
H          0.12762        1.82256        1.73421
N          2.92238       -2.41886       -0.16492
H          2.10931       -2.10598       -0.68924
C          2.56703       -2.59594        1.24366
H          1.79971       -3.36259        1.42620
H          3.46246       -2.86438        1.81315
H          2.19157       -1.64655        1.63395
H          3.23268       -3.29450       -0.57129
