37
2msa1ma1eda_506.log	Energy: -1013349.4524272
S          1.80599        1.55082       -0.27504
O          2.37392        1.67372       -1.62068
O          2.63733        0.76664        0.67621
O          0.38982        1.03680       -0.28330
C          1.68515        3.19494        0.41552
H          2.69244        3.60768        0.47751
H          1.06527        3.80010       -0.24662
H          1.23744        3.12110        1.40686
S         -3.27215       -0.05547       -0.28210
O         -4.72066       -0.04619       -0.37688
O         -2.53257       -1.26916       -0.58981
O         -2.89154        0.33896        1.24780
H         -3.71634        0.51790        1.72209
C         -2.56841        1.29692       -1.18323
H         -2.73121        1.08064       -2.24035
H         -3.09560        2.20565       -0.89269
H         -1.49837        1.35177       -0.95109
N          1.31517       -1.28484        2.36785
H          1.81415       -1.93842        2.96095
C          0.25606       -0.58447        3.09770
H          0.61798       -0.01915        3.96637
H         -0.23340        0.11414        2.41331
H         -0.49527       -1.30169        3.44092
H          1.98720       -0.60463        2.00784
H          0.99888       -3.53694       -0.87572
H          0.30405       -2.46543       -2.11936
H          2.74609       -2.63332       -2.33753
H          2.26271       -0.97465       -1.98527
H          4.14339       -2.29122       -0.62512
H          3.25361       -1.09153        0.04033
H         -0.69664       -1.91113       -0.08613
H          0.75948       -1.78550        0.78574
C          0.94413       -2.50576       -1.23328
C          2.34056       -1.98361       -1.55520
N          0.29937       -1.69640       -0.17129
N          3.20053       -2.02103       -0.37538
H          0.34160       -0.66925       -0.37171
