44
2msa2tma_55.log	Energy: -1052597.0122550
S         -0.80786        2.26932        0.03957
O         -1.49261        1.78618       -1.16244
O          0.63308        2.06915        0.12704
O         -1.52712        1.72663        1.31879
H         -1.26596        0.72854        1.58856
C         -1.15969        4.00388        0.21348
H         -0.72485        4.50179       -0.65373
H         -2.24044        4.14074        0.23607
H         -0.69879        4.35830        1.13484
S          0.03419       -1.39752        1.30733
O         -0.01131       -2.80906        1.67868
O         -1.05187       -0.59587        1.99696
O         -0.05110       -1.14416       -0.16734
H         -1.51673       -1.10486       -0.71979
C          1.57596       -0.68673        1.82545
H          1.70529       -0.90806        2.88514
H          2.38162       -1.10676        1.21745
H          1.51515        0.38784        1.64476
N         -2.49233       -1.34017       -1.08540
C         -2.53068       -0.95333       -2.51422
H         -2.34415        0.11829       -2.58070
H         -1.74436       -1.49432       -3.04195
H         -3.50755       -1.20749       -2.93318
C         -2.61456       -2.80535       -0.88924
H         -1.81483       -3.29988       -1.44065
H         -2.49322       -3.02654        0.17207
H         -3.59146       -3.14034       -1.24575
C         -3.48743       -0.59506       -0.27544
H         -3.30993       -0.81974        0.77706
H         -3.33818        0.46998       -0.44785
H         -4.49262       -0.90290       -0.57458
N          3.82763       -0.30876       -0.59198
C          4.09527        1.06545       -0.20613
H          3.16625        1.54800        0.10884
H          4.80511        1.08679        0.62726
H          4.52309        1.65922       -1.03824
C          5.03999       -0.98762       -1.00517
H          5.77727       -0.96162       -0.19668
H          4.82070       -2.03526       -1.23296
H          5.49873       -0.52779       -1.90343
C          2.80443       -0.36811       -1.62378
H          2.57147       -1.41285       -1.85013
H          1.88944        0.10946       -1.26568
H          3.12832        0.13143       -2.55855
