32
2msa2ma_51.log	Energy: -953969.5222443
S         -2.25946       -0.04852       -0.49537
O         -3.71474       -0.00771       -0.56095
O         -1.61145       -1.30688       -0.92598
O         -1.73196        0.32221        0.89105
H         -1.01579       -1.18350        1.43672
C         -1.63046        1.23246       -1.57464
H         -1.96057        0.99426       -2.58641
H         -2.06118        2.18629       -1.26485
H         -0.53818        1.24467       -1.52788
S          2.37470       -0.06908       -0.38486
O          3.82804       -0.11994       -0.45592
O          1.77137        1.23957       -0.80963
O          1.82065       -0.43758        0.97005
H          0.80743        1.82647        2.04534
C          1.71660       -1.27760       -1.52193
H          2.04002       -0.99708       -2.52500
H          2.13463       -2.25011       -1.25652
H          0.62506       -1.28048       -1.45280
N          0.28469        2.08349        1.21011
H          0.91963        1.84370        0.38998
C         -0.13662        3.49717        1.21019
H         -0.63890        3.70532        0.26580
H         -0.82700        3.68135        2.03352
H          0.73751        4.14206        1.30004
H         -0.53522        1.42557        1.12438
N         -0.27516       -1.86683        1.72065
H          0.61593       -1.41555        1.36798
C         -0.48908       -3.21693        1.15020
H          0.37565       -3.84151        1.37576
H         -1.39215       -3.65330        1.57665
H         -0.62477       -3.10035        0.07686
H         -0.23066       -1.89063        2.73691
