37
2msa1ma1eda_465.log	Energy: -1013350.5079546
S          2.67872       -0.60392        0.31993
O          4.09558       -0.48116        0.01781
O          1.79916       -0.42771       -0.90591
O          2.18764        0.30318        1.40165
H          0.82176        1.06162        1.15218
C          2.35719       -2.26075        0.89743
H          2.66908       -2.95911        0.12010
H          2.94699       -2.40961        1.80225
H          1.29080       -2.35420        1.11106
S         -1.32466       -1.17909       -0.48990
O         -1.58180        0.23963       -0.82598
O         -1.03108       -1.42002        0.92189
O         -0.19899       -1.73673       -1.40194
H          0.71971       -1.20278       -1.20140
C         -2.72127       -2.13662       -1.00041
H         -3.57778       -1.73249       -0.45093
H         -2.84972       -2.00361       -2.07448
H         -2.52610       -3.17936       -0.75130
N         -4.39267        0.36796        0.42719
H         -3.76311        0.76658       -0.26350
C         -3.88172        0.61263        1.77433
H         -3.72958        1.67640        2.01752
H         -4.57723        0.19769        2.50892
H         -2.93007        0.08691        1.89730
H         -5.30155        0.79934        0.30226
H         -0.27217        3.77861        0.57570
H          1.32594        3.33469        1.24994
H          1.56655        3.89353       -1.09309
H          1.86597        2.16196       -0.89718
H          0.29587        2.97567       -2.75476
H         -0.27465        1.74197       -1.85488
H         -0.48503        1.81177        1.89851
H         -0.64951        1.31367        0.32746
C          0.53937        3.04830        0.54830
C          1.08790        2.93605       -0.86765
N          0.00618        1.73433        1.01031
N          0.00304        2.71966       -1.81954
