43
2msa1eda1tma_28.log	Energy: -1062692.5219290
S         -2.71536        0.23175       -0.37573
O         -2.71747       -0.67194       -1.54491
O         -3.12319        1.62100       -0.64245
O         -1.37785        0.18557        0.32993
C         -3.87142       -0.45225        0.80181
H         -4.84592       -0.52219        0.31775
H         -3.50589       -1.43636        1.10195
H         -3.91858        0.21588        1.66245
S          2.71325       -0.27973       -0.30555
O          3.10186        0.96670       -0.99199
O          2.45250       -1.42267       -1.22627
O          1.58202       -0.08150        0.64926
C          4.11692       -0.77993        0.68006
H          4.95903       -0.94265        0.00700
H          4.34134        0.01756        1.38907
H          3.86159       -1.70079        1.20503
H         -1.59794       -3.33075       -0.43359
H         -0.02696       -3.96195       -0.99755
H         -0.04918       -4.23393        1.37095
H          1.02816       -2.86515        1.04530
H         -0.62462       -2.50996        2.85738
H         -0.84681       -1.41620        1.66162
H         -0.80244       -1.74459       -1.89774
H         -0.49627       -1.08027       -0.45011
C         -0.51623       -3.18133       -0.41061
C         -0.02257       -3.19417        1.02951
N         -0.22459       -1.88008       -1.06631
N         -0.90329       -2.40808        1.88797
H          0.79486       -1.77074       -1.27180
N          0.34092        2.48989        0.40570
C          1.62959        3.00873        0.93204
H          1.70881        2.73942        1.98562
H          2.44205        2.55412        0.36455
H          1.63633        4.09521        0.81973
C          0.22249        2.71813       -1.06083
H          1.06460        2.22225       -1.54630
H         -0.73023        2.30612       -1.39408
H          0.25272        3.79400       -1.24697
C         -0.81562        3.06253        1.14248
H         -1.73874        2.69641        0.69295
H         -0.74977        2.75260        2.18594
H         -0.75960        4.15126        1.07095
H          0.34407        1.45873        0.53353
