44
2msa2tma_49.log	Energy: -1052599.3192120
S          2.05640       -0.85125       -1.10421
O          2.44168       -2.07093       -0.39087
O          3.07835        0.20518       -1.18740
O          0.76607       -0.28215       -0.50686
C          1.60000       -1.29793       -2.77048
H          1.26688       -0.40148       -3.29463
H          2.48479       -1.71687       -3.25049
H          0.80319       -2.04047       -2.71940
S         -1.90165        1.78923       -0.72908
O         -2.51226        2.98382       -1.27374
O         -1.31002        1.84341        0.61236
O         -0.78491        1.31615       -1.74362
H         -0.13995        0.67753       -1.28218
C         -3.06833        0.45043       -0.76051
H         -3.87638        0.71666       -0.07710
H         -3.44698        0.36372       -1.77937
H         -2.56574       -0.47089       -0.43583
N         -1.91335       -2.27855        0.69738
C         -3.20169       -2.79958        1.11518
H         -3.83147       -1.98347        1.48506
H         -3.70802       -3.26310        0.26290
H         -3.11459       -3.55707        1.91751
C         -1.07075       -3.32027        0.13016
H         -1.56156       -3.75679       -0.74535
H         -0.11288       -2.89289       -0.17584
H         -0.86864       -4.13322        0.85306
C         -1.23753       -1.59655        1.78652
H         -0.28257       -1.21961        1.41372
H         -1.83939       -0.74530        2.12320
H         -1.05122       -2.26271        2.65155
N          1.58684        1.16083        1.67567
C          0.69407        1.27340        2.85497
H         -0.25706        1.69116        2.53011
H          0.54160        0.27850        3.27516
H          1.17232        1.91864        3.59536
C          2.85283        0.45579        2.01305
H          2.61640       -0.56799        2.30537
H          3.48667        0.43548        1.12632
H          3.34117        0.98632        2.83334
C          1.84699        2.47958        1.03772
H          2.39922        2.29678        0.11440
H          0.88614        2.94454        0.81834
H          2.43195        3.09613        1.72382
H          1.11076        0.58969        0.93358
