40
2msa1dma1eda_39.log	Energy: -1038036.1936496
S         -2.63988       -0.39769        0.10538
O         -2.56764        0.85346        0.91280
O         -2.10294       -1.58730        0.78937
O         -2.02719       -0.19888       -1.24646
C         -4.37848       -0.68845       -0.16872
H         -4.85374       -0.82097        0.80350
H         -4.79708        0.17346       -0.68824
H         -4.48105       -1.59090       -0.77158
S          2.48437        0.69371       -0.17415
O          1.99435        2.06429       -0.48906
O          2.60991       -0.17573       -1.36956
O          1.66217        0.06489        0.89784
C          4.12916        0.89404        0.48265
H          4.74107        1.37620       -0.27992
H          4.06697        1.51270        1.37794
H          4.52217       -0.09407        0.72276
N         -0.60725        2.56478        0.17645
C         -1.16306        3.07460       -1.09493
C         -0.47244        3.58268        1.23633
H         -1.24130        1.80093        0.51495
H         -0.46694        3.79579       -1.52565
H         -1.29992        2.22557       -1.76512
H         -2.12899        3.54332       -0.90039
H          0.19782        4.37179        0.89226
H         -1.45589        3.99401        1.46838
H         -0.05325        3.10539        2.12187
H          0.34497        2.18523       -0.02215
H         -0.72137       -3.36289       -0.28010
H          0.29148       -3.59526       -1.73095
H          1.32654       -4.70442        0.22009
H          2.35272       -3.39167       -0.33995
H          1.70716       -2.07203        1.49622
H          0.54488       -3.14120        1.96432
H         -0.57262       -1.25719       -1.30138
H          0.38469       -1.22087        0.02471
C          0.24387       -3.13795       -0.73915
C          1.39845       -3.61322        0.15116
N          0.29380       -1.66695       -0.90067
N          1.43582       -3.05156        1.48767
H          1.12894       -1.32926       -1.40891
