30
2msa1eda_120.log	Energy: -953193.9684008
S         -2.55009       -0.24465       -0.09777
O         -2.01960       -0.82891       -1.34533
O         -2.96184        1.16873       -0.19303
O         -1.58754       -0.45083        1.04843
C         -3.99964       -1.18895        0.34472
H         -4.72492       -1.08401       -0.46277
H         -3.71004       -2.23287        0.46606
H         -4.40129       -0.78778        1.27531
S          2.01723       -1.17657       -0.01514
O          2.40262       -0.29815       -1.10541
O          1.71563       -0.59315        1.28705
O          3.24031       -2.21878        0.22476
H          3.48325       -2.18237        1.16101
C          0.73398       -2.26348       -0.55700
H         -0.13652       -1.65491       -0.83394
H          1.11630       -2.81269       -1.41778
H          0.48207       -2.92793        0.26888
H          0.23994        1.20024       -0.92773
H         -0.95954        2.46352       -0.67689
H          1.22057        3.34230       -1.61752
H          0.84799        4.07633       -0.05388
H          2.72749        1.84898       -0.43115
H          3.06267        3.35814        0.13429
H         -0.67878        0.81786        1.16001
H          0.87621        1.50250        1.40721
C          0.02116        2.10779       -0.36046
C          1.12892        3.13556       -0.54224
N         -0.07291        1.70164        1.06875
N          2.35018        2.64041        0.08534
H         -0.48369        2.44115        1.63491
