40
2msa1dma1eda_235.log	Energy: -1038020.9005285
S          0.31532        1.81260        0.03174
O          1.51199        2.55633        0.43926
O         -0.43568        1.25630        1.21240
O          0.58161        0.73337       -0.96376
H          0.67685       -0.82706       -0.37318
C         -0.79410        2.95277       -0.76698
H         -1.04360        3.73326       -0.04768
H         -0.27452        3.37418       -1.62780
H         -1.68134        2.39899       -1.07987
S         -3.17111       -0.42150       -0.13741
O         -2.51112       -1.70778       -0.36483
O         -3.10389        0.57066       -1.20218
O         -2.69231        0.19432        1.22543
H         -1.75458        0.64897        1.16352
C         -4.87325       -0.73444        0.26799
H         -5.32556       -1.19282       -0.61196
H         -4.90872       -1.41400        1.11893
H         -5.35346        0.21565        0.49939
N          0.90074       -1.78448       -0.00803
C          0.47983       -2.79707       -0.99715
C          0.29179       -1.95539        1.32984
H          1.95312       -1.81418        0.10639
H         -0.59740       -2.71692       -1.14467
H          1.00008       -2.60435       -1.93632
H          0.74107       -3.79122       -0.62781
H         -0.79024       -2.02739        1.21999
H          0.68959       -2.86477        1.78602
H          0.54043       -1.08298        1.93514
H          5.52585       -1.15484       -0.41831
H          4.25989       -1.60022       -1.57506
H          4.56791        0.87948       -1.40092
H          2.93255        0.37970       -0.97825
H          4.93985        1.36902        0.85662
H          3.31044        1.61599        0.80627
H          4.12016       -2.71293        0.66592
H          3.75718       -1.22228        1.27072
C          4.44292       -1.11874       -0.60816
C          3.97591        0.33813       -0.64974
N          3.69044       -1.82085        0.44349
N          4.04649        0.92188        0.68715
