41
2msa1dma1tma_05.log	Energy: -1027958.9949152
S         -2.76633       -0.51419       -0.22184
O         -2.63068       -1.81760       -0.88344
O         -3.12762        0.62872       -1.07653
O         -1.52104       -0.20104        0.59430
C         -4.06748       -0.68197        0.99306
H         -4.98765       -0.92852        0.46241
H         -3.79776       -1.48094        1.68380
H         -4.17653        0.26508        1.52243
S          2.96636        0.12244       -0.15880
O          2.72546        1.32872       -0.97260
O          2.65804       -1.15295       -0.88161
O          2.29101        0.16258        1.16406
C          4.72384        0.06413        0.15673
H          5.23861        0.00695       -0.80256
H          5.00314        0.97400        0.68861
H          4.93783       -0.81728        0.76160
N          0.40587       -2.21969        0.12112
C          0.71892       -2.61644        1.50924
C         -0.03070       -3.33032       -0.74960
H         -0.32525       -1.48330        0.16419
H          1.48914       -3.38941        1.49228
H          1.09514       -1.73447        2.02791
H         -0.18499       -2.99835        1.98691
H          0.77563       -4.06341       -0.81030
H         -0.93638       -3.77821       -0.34196
H         -0.25499       -2.93045       -1.73690
H          1.26837       -1.77553       -0.29587
N         -0.70851        2.36097        0.16664
C         -0.27473        2.41919       -1.25708
H          0.67258        1.88506       -1.35786
H         -1.06016        1.96368       -1.86160
H         -0.13384        3.46722       -1.53253
C         -1.95135        3.14050        0.38381
H         -2.71314        2.76658       -0.30020
H         -2.27898        2.99716        1.41475
H         -1.74263        4.19765        0.20453
C          0.37256        2.77063        1.09974
H         -0.01515        2.72152        2.11839
H          1.21342        2.08415        0.99405
H          0.67315        3.79312        0.86063
H         -0.94915        1.35497        0.36443
