42
2msa2eda_153.log	Energy: -1072761.5686062
S         -2.54663       -0.67458        0.04087
O         -1.90859       -1.85702        0.68316
O         -2.34867       -0.60728       -1.42151
O         -2.14868        0.59922        0.72020
C         -4.29724       -0.86475        0.32136
H         -4.61357       -1.79189       -0.15690
H         -4.47112       -0.90652        1.39658
H         -4.80798       -0.00949       -0.12114
S          1.98370       -1.39197       -1.05406
O          3.15899       -1.31623       -1.91325
O          1.35154       -0.06496       -0.73841
O          2.20133       -2.11211        0.24376
H          1.16523       -1.55421        1.33322
C          0.72465       -2.31792       -1.91873
H          0.53420       -1.82442       -2.87231
H          1.11080       -3.32430       -2.08456
H         -0.18361       -2.33668       -1.31417
H         -0.09759        3.29530       -2.51012
H         -1.72172        3.36010       -1.76987
H         -0.20833        4.95555       -0.67493
H         -0.71431        3.70728        0.45924
H          1.85489        4.39125       -0.00245
H          1.45899        2.87812        0.50330
H         -1.10112        1.06789       -1.99641
H          0.35171        1.25859       -1.23602
C         -0.67229        3.10281       -1.60209
C         -0.09499        3.89442       -0.43225
N         -0.60891        1.65272       -1.31401
N          1.30764        3.57246       -0.23096
H         -1.09915        1.41371       -0.42432
H          2.46006       -0.26103        3.19523
H          1.70840        1.24055        3.73596
H         -0.14635       -0.15887        3.65024
H         -0.23245        0.57775        2.04937
H          0.56492       -2.13593        2.76505
H         -0.50219       -1.61143        1.58546
H          3.17156        1.55400        1.81323
H          2.13766        0.70432        0.86977
C          1.76418        0.54061        2.89558
C          0.37596       -0.05698        2.69639
N          2.19985        1.27844        1.71382
N          0.40699       -1.41035        2.06890
