37
2msa1ma1eda_474.log	Energy: -1013352.8123702
S          0.67107        1.45543       -0.51658
O         -0.16494        2.56654       -1.06490
O          0.93201        0.36944       -1.47193
O          0.05544        0.95399        0.76546
H         -0.57637       -0.42977        0.88889
C          2.22232        2.19835       -0.06783
H          2.64927        2.62267       -0.97749
H          2.01683        2.98487        0.65856
H          2.89414        1.44519        0.35522
S         -2.19116       -1.61567        0.00336
O         -2.94577       -2.74941        0.48634
O         -1.04207       -1.32798        1.04042
O         -2.92228       -0.36329       -0.26353
H         -2.72885        1.30017       -0.04769
C         -1.32935       -2.04710       -1.48926
H         -0.75516       -2.95420       -1.29723
H         -2.08800       -2.22910       -2.25151
H         -0.67615       -1.21590       -1.76819
N         -2.58065        2.32772        0.04012
H         -1.65872        2.52001       -0.44912
C         -2.50656        2.72054        1.46666
H         -2.35509        3.79755        1.53797
H         -3.42767        2.43402        1.97385
H         -1.65463        2.19788        1.90026
H         -3.33289        2.80369       -0.45254
H          2.26342       -0.63132        1.25542
H          3.12662       -2.12368        1.64154
H          4.49676       -1.92441       -0.37179
H          3.51899       -0.56943       -0.94911
H          5.09086       -0.44144        1.53175
H          5.50449        0.25548        0.11853
H          1.08941       -2.67269        0.58643
H          1.42571       -1.72389       -0.69396
C          2.74998       -1.51398        0.81031
C          3.92060       -1.04623       -0.04681
N          1.84774       -2.33067        0.00519
N          4.71255       -0.04642        0.67590
