22
2msa1a_03.log	Energy: -869149.9805467
S         -2.05355       -0.26102       -0.01606
O         -1.83015        0.51636        1.23054
O         -1.11025       -1.41071       -0.15507
O         -2.06873        0.61654       -1.21591
C         -3.65922       -1.01460        0.11336
H         -4.39607       -0.22035        0.23285
H         -3.84147       -1.57807       -0.80165
H         -3.65332       -1.67379        0.98127
S          2.15917       -0.12968        0.09875
O          2.03070       -0.11957        1.54478
O          1.85400        1.14334       -0.58787
O          1.35813       -1.29546       -0.56052
H          0.33536       -1.29289       -0.36163
C          3.80189       -0.60575       -0.37360
H          4.01601       -1.57190        0.08240
H          3.84991       -0.66185       -1.46050
H          4.47626        0.16101        0.00846
N         -0.46780        2.49159       -0.04354
H         -1.07657        2.13372       -0.80525
H         -0.47544        3.50339        0.03374
H         -0.86677        2.01677        0.79180
H          0.49119        2.11220       -0.20597
