29
2msa1a1ma_50.log	Energy: -929303.1270188
S         -2.19208       -0.09132       -0.20425
O         -2.08190        1.40099       -0.15865
O         -2.16696       -0.70456        1.13151
O         -1.18803       -0.68256       -1.14391
H          0.19823       -0.17071       -1.23403
C         -3.77373       -0.43205       -0.94526
H         -4.54439       -0.02935       -0.28793
H         -3.80526        0.04738       -1.92328
H         -3.87400       -1.51331       -1.04035
S          2.20657       -0.21672       -0.29339
O          3.43954        0.47388       -0.61550
O          1.14602        0.21825       -1.37196
O          1.63267        0.00894        1.04862
H          0.60045        1.35432        1.32891
C          2.38558       -1.96503       -0.51032
H          2.59497       -2.14905       -1.56403
H          3.22944       -2.27076        0.11020
H          1.46602       -2.44968       -0.15651
N          0.03514       -2.88250        1.50984
H         -0.40003       -3.75390        1.79364
H         -0.71128       -2.20718        1.34449
H          0.56874       -2.53693        2.30138
N          0.02188        2.21731        1.23254
H         -0.88302        1.91884        0.75989
C          0.74183        3.19418        0.38050
H          0.14214        4.09809        0.27831
H          1.71034        3.42361        0.82411
H          0.88885        2.73581       -0.59737
H         -0.18481        2.58568        2.15780
