40
2msa1dma1eda_199.log	Energy: -1038021.3230243
S          0.34744        2.41686       -0.22909
O          1.75429        2.16312       -0.58384
O          0.01849        2.28828        1.19741
O         -0.55973        1.55020       -1.09285
C         -0.03689        4.09036       -0.71253
H          0.59750        4.75654       -0.12728
H          0.16666        4.19830       -1.77782
H         -1.08931        4.27541       -0.49646
S         -2.49676       -0.97385       -0.00374
O         -1.86890       -1.10881        1.30501
O         -1.83771       -1.65710       -1.11860
O         -2.74235        0.53562       -0.35956
H         -1.85782        1.00917       -0.61406
C         -4.18433       -1.51903        0.09681
H         -4.15753       -2.58088        0.34325
H         -4.68191       -0.95190        0.88297
H         -4.65871       -1.35709       -0.87040
N          1.31379       -0.40417        1.79333
C          2.61522        0.21668        2.03207
C          1.06809       -1.56971        2.63635
H          0.58876        0.29991        1.93818
H          3.41059       -0.49098        1.76805
H          2.70733        1.10427        1.40288
H          2.75592        0.50207        3.08474
H          1.78187       -2.36079        2.37661
H          1.18636       -1.34757        3.70728
H          0.05589       -1.93473        2.45582
H          2.14817       -0.91127       -2.61210
H          2.79368        0.02871       -1.25530
H          4.04980       -2.10902       -1.50129
H          3.16553       -2.08097        0.02707
H          2.35673       -3.58158       -2.35603
H          2.57369       -4.12901       -0.82907
H          0.38876       -0.06147       -1.20932
H          0.42294       -1.72262       -1.07085
C          2.28240       -0.89724       -1.52611
C          3.04319       -2.13092       -1.06035
N          0.95200       -0.86594       -0.88910
N          2.27410       -3.33172       -1.37637
H          1.06616       -0.74116        0.18535
