32
2msa1a1dma_163.log	Energy: -953948.1256586
S         -2.63453       -0.44831       -0.11126
O         -3.78983       -1.27693       -0.38314
O         -1.58652       -0.31235       -1.12299
O         -1.96264       -1.00625        1.22670
H         -0.98215       -0.86914        1.21181
C         -3.16644        1.17332        0.37792
H         -3.68440        1.60814       -0.47837
H         -3.84739        1.06302        1.22185
H         -2.26948        1.74996        0.63171
S          1.65900       -1.23623        0.14191
O          0.71886       -0.81090        1.18613
O          2.95075       -1.74296        0.58975
O          1.88799       -0.03904       -0.85487
H          2.82976        0.39223       -0.68964
C          0.84609       -2.41363       -0.90258
H          0.57237       -3.26104       -0.27233
H         -0.04178       -1.93084       -1.31712
H          1.54612       -2.71616       -1.68064
N          4.25161        0.89508       -0.34357
H          4.84602        1.12312       -1.13413
H          4.65571        0.09954        0.14691
H          4.24829        1.68820        0.29069
N         -0.10816        2.25949        0.16196
C          0.97227        2.62049        1.05849
C         -0.28817        3.20821       -0.92305
H          0.07519        1.34235       -0.23327
H          0.72073        3.54427        1.59156
H          1.11535        1.82549        1.79458
H          1.93273        2.79261        0.53446
H         -0.62970        4.16971       -0.52236
H          0.63567        3.39236       -1.50016
H         -1.05030        2.83387       -1.61206
