30
2msa1eda_69.log	Energy: -953203.0041983
S         -2.02114       -0.96848       -0.01628
O         -2.56660        0.11898       -0.82052
O         -1.51480       -0.58599        1.31452
O         -0.94767       -1.78501       -0.78857
H         -0.00621       -1.30480       -0.85001
C         -3.25933       -2.21844        0.20748
H         -4.08961       -1.75306        0.73911
H         -3.57531       -2.56243       -0.77714
H         -2.82603       -3.03086        0.78967
S          2.32359       -0.53451       -0.02237
O          1.20272       -0.59891       -1.03155
O          2.17554       -1.50829        1.05839
O          2.50554        0.87381        0.44239
H          1.17949        1.38377        1.26347
C          3.79183       -0.92440       -0.95156
H          3.89472       -0.19595       -1.75544
H          4.64027       -0.87352       -0.26888
H          3.67736       -1.93202       -1.35139
H         -1.63071        2.34698        1.10011
H         -0.33314        3.54486        1.28495
H          0.67276        2.92389       -0.80416
H         -0.17081        1.38651       -0.86666
H         -1.05606        3.37111       -2.23832
H         -2.14761        2.49994       -1.39114
H          0.30095        1.77527        2.65842
H         -0.28217        0.62450        1.60990
C         -0.57436        2.54885        0.90967
C         -0.28463        2.44131       -0.58719
N          0.21486        1.53590        1.67352
N         -1.35285        3.12737       -1.30093
