25
2msa1ma_62.log	Energy: -893793.0805939
S          2.07588       -0.70020        0.12117
O          2.95761       -1.80858        0.39502
O          1.03622       -0.35311        1.11209
O          1.34721       -0.98384       -1.26318
H          0.43079       -0.60609       -1.27006
C          3.01003        0.76781       -0.20597
H          3.51999        1.03254        0.72143
H          3.73247        0.52588       -0.98585
H          2.30651        1.54837       -0.52373
S         -2.17239       -0.53063       -0.12642
O         -3.18492       -1.42598       -0.62754
O         -1.15620       -0.00298       -1.05586
O         -1.42820       -1.23726        1.07546
H         -0.47397       -0.93884        1.14631
C         -2.95113        0.86760        0.64659
H         -3.48616        1.41219       -0.13242
H         -3.64501        0.49075        1.39787
H         -2.18072        1.49198        1.09941
N          0.41423        2.66170       -0.77258
H          0.34070        3.47613       -1.37168
C          0.17277        3.00857        0.62533
H         -0.81107        3.46163        0.82345
H          0.27408        2.10506        1.23474
H          0.93528        3.71563        0.96476
H         -0.26216        1.97600       -1.09579
