34
2msa1a1eda_352.log	Energy: -988680.5945910
S          2.16703       -1.55786       -0.07394
O          2.21482       -2.97532       -0.38271
O          1.61830       -1.14830        1.21704
O          1.39041       -0.76872       -1.23206
H          0.41230       -0.80406       -1.08105
C          3.76749       -0.83060       -0.30093
H          4.43765       -1.34787        0.38712
H          4.07459       -1.00146       -1.33280
H          3.68617        0.23303       -0.05112
S         -2.20274       -0.45332        0.17980
O         -1.27629       -0.71984       -0.92528
O         -3.20931       -1.46809        0.47092
O         -2.93038        0.91914       -0.11890
H         -3.94863        0.76005       -0.25767
C         -1.26331       -0.05919        1.62512
H         -0.64888       -0.92807        1.86511
H         -0.62167        0.78574        1.35880
H         -1.96308        0.18188        2.42498
N         -5.45667        0.32765       -0.42648
H         -6.13400        0.80744        0.15749
H         -5.40509       -0.64516       -0.12887
H         -5.79309        0.34834       -1.38403
H          1.71098        3.91313        0.82219
H          3.14984        3.65530       -0.17585
H          1.25445        3.55411       -1.63872
H          1.86699        1.90025       -1.45778
H         -0.54349        2.97847       -0.21332
H         -0.37237        1.63226       -1.11503
H          3.12009        2.27224        1.87294
H          1.86627        1.42872        1.23857
C          2.25787        3.16158        0.22653
C          1.36970        2.72025       -0.93025
N          2.67586        1.99890        1.00358
N          0.09101        2.21504       -0.42564
