42
2msa2eda_136.log	Energy: -1072766.3607140
S         -2.74516        0.60212       -0.50925
O         -3.28996       -0.50456        0.32376
O         -1.43032        0.26753       -1.10091
O         -2.70441        1.91017        0.20810
H         -1.05027        2.44766        0.27844
C         -3.90287        0.82013       -1.84916
H         -4.86971        1.08379       -1.42020
H         -3.53435        1.61750       -2.49467
H         -3.96900       -0.11947       -2.39806
S          2.78316        0.58527       -0.51366
O          3.13086        0.78340        0.91405
O          1.88506        1.67701       -1.01822
O          2.25956       -0.76379       -0.80996
H          0.11845        0.07122        0.48689
C          4.29361        0.77251       -1.44798
H          4.69467        1.76864       -1.26042
H          4.99316        0.00743       -1.11025
H          4.06016        0.64160       -2.50474
H         -1.13914       -3.25170       -1.15795
H         -0.18050       -1.75709       -1.03821
H          1.30418       -3.77127       -1.03909
H          1.43746       -2.84723        0.44503
H          0.03489       -5.40491        0.13501
H          1.10847       -4.95844        1.28030
H         -2.10108       -1.82950        0.52299
H         -1.31347       -3.15479        1.27920
C         -0.46065       -2.67557       -0.52164
C          0.76300       -3.48873       -0.12858
N         -1.19776       -2.30869        0.71573
N          0.34620       -4.62394        0.70320
H          1.36768        2.38478        1.99755
H         -0.16834        3.12195        2.55080
H         -0.02172        0.80082        3.33282
H         -1.35515        0.98252        2.19207
H          1.28486       -0.17035        1.59161
H         -0.62146       -1.59065        1.24896
H          0.08088        3.68448        0.31272
H          0.61276        2.18686       -0.17043
C          0.27830        2.35961        1.90733
C         -0.26431        0.97908        2.28113
N         -0.05408        2.69165        0.48997
N          0.27274       -0.11648        1.48039
