40
2msa1dma1eda_441.log	Energy: -1038010.6781043
S         -2.45596        0.98122       -0.26394
O         -2.57005       -0.03621       -1.31253
O         -1.27082        1.83432       -0.33428
O         -2.57604        0.32709        1.15459
H         -1.74770       -0.28172        1.32960
C         -3.92315        1.97706       -0.26411
H         -3.96081        2.48339       -1.22897
H         -4.78274        1.31966       -0.13712
H         -3.85066        2.69794        0.54961
S          0.83355       -0.65623        1.76535
O          1.49505       -1.49249        2.75425
O         -0.56639       -1.12451        1.42434
O          1.59881       -0.48627        0.48721
H          0.67870       -0.53594       -0.85633
C          0.64409        0.98793        2.42861
H          0.07429        0.91707        3.35581
H          1.64278        1.38208        2.61984
H          0.12857        1.60372        1.68933
N          3.04458        1.99565       -0.40288
C          4.40284        1.97223       -0.91010
C          2.05859        2.21073       -1.44009
H          2.83060        1.12436        0.07401
H          4.66375        2.95637       -1.31605
H          5.09884        1.75019       -0.09696
H          4.56212        1.22749       -1.71341
H          2.17549        3.21188       -1.87056
H          2.14531        1.48953       -2.28324
H          1.05252        2.14205       -1.01704
H          0.24072       -2.25704       -3.24201
H          1.82788       -1.82415       -2.54088
H          0.90794       -4.07716       -1.77367
H          1.31534       -2.96507       -0.46490
H         -1.12922       -4.14131       -0.80998
H         -0.87728       -2.77498        0.07689
H          0.25604        0.02164       -2.38661
H         -0.82075       -0.91931       -1.55749
C          0.77588       -2.01936       -2.31987
C          0.61546       -3.14061       -1.29017
N          0.18326       -0.77757       -1.75967
N         -0.77066       -3.19719       -0.84269
