40
2msa1dma1eda_218.log	Energy: -1038021.2521095
S         -1.95759       -1.35475        0.63799
O         -2.06692       -2.17197       -0.56731
O         -2.57876       -0.00614        0.55310
O         -0.52682       -1.20615        1.12219
C         -2.79641       -2.19938        1.96532
H         -3.84522       -2.30042        1.68506
H         -2.33539       -3.17999        2.08559
H         -2.69453       -1.60718        2.87450
S          2.22115       -1.05378       -0.74869
O          3.03600       -0.25079        0.16247
O          1.31413       -0.30076       -1.62687
O          1.44811       -2.16647        0.01363
H          0.55952       -1.80272        0.46699
C          3.28698       -2.04782       -1.75990
H          3.90045       -1.36511       -2.34825
H          3.90690       -2.65873       -1.10419
H          2.66303       -2.66707       -2.40345
N          1.46122        2.00999        1.53815
C          0.87331        1.46676        2.76359
C          2.10999        3.30101        1.74110
H          2.14266        1.33981        1.17940
H          0.08449        2.14033        3.11558
H          0.42447        0.49396        2.54722
H          1.61315        1.35299        3.56947
H          1.36146        4.04582        2.03082
H          2.88017        3.27049        2.52631
H          2.57808        3.62901        0.80935
H         -1.22931        3.46147       -0.87425
H          0.11620        2.89886       -1.90207
H         -1.91178        2.83780       -3.20852
H         -1.41685        1.17155       -2.88823
H         -3.84633        1.77675       -2.50911
H         -3.15913        1.09423       -1.19040
H          0.22691        1.88423        0.33128
H         -1.30327        1.16424        0.05593
C         -0.81275        2.60400       -1.40716
C         -1.82459        2.08315       -2.42032
N         -0.46753        1.56123       -0.41329
N         -3.13199        1.90772       -1.80311
H          0.01028        0.77563       -0.88340
