40
2msa1dma1eda_83.log	Energy: -1038033.7413488
S          2.39384       -1.37959       -0.28199
O          3.23313       -0.37739        0.40638
O          1.36188       -0.77035       -1.16516
O          1.77089       -2.36018        0.66262
H          0.13440       -2.14156        0.79345
C          3.46784       -2.33474       -1.33524
H          4.21539       -2.81802       -0.70615
H          2.86272       -3.07471       -1.85880
H          3.94105       -1.65298       -2.04222
S         -3.33823        0.13362       -0.32983
O         -3.95637       -0.60140        0.78710
O         -2.25705       -0.66417       -1.00025
O         -2.82990        1.48305        0.05065
H          0.11110        0.33834       -0.35121
C         -4.58767        0.39709       -1.57168
H         -4.97359       -0.57605       -1.87533
H         -5.37753        1.00337       -1.12774
H         -4.13015        0.91352       -2.41532
N          2.20830        2.42651        0.07113
C          2.63268        3.58378        0.85077
C          2.33819        2.62697       -1.37191
H          2.76460        1.60561        0.32253
H          1.97975        4.43442        0.62977
H          2.55229        3.35991        1.91783
H          3.66914        3.88344        0.63517
H          1.64757        3.41144       -1.69913
H          3.35708        2.92021       -1.66457
H          2.08042        1.69501       -1.88174
H         -1.95138       -0.42573        2.06483
H         -0.63773       -1.21514        2.96759
H         -0.10328        1.13587        2.49005
H          1.08825        0.02977        1.78896
H         -1.09355        1.36420        0.25654
H          0.64118        1.75427        0.30329
H         -1.41505       -2.63830        1.27086
H         -1.31982       -1.48266        0.08449
C         -0.91621       -0.77087        2.00977
C          0.05186        0.37118        1.72555
N         -0.86146       -1.83773        0.97154
N         -0.12302        1.01044        0.40186
