41
2msa1dma1tma_86.log	Energy: -1027940.9752655
S          1.73605        2.02992        0.21157
O          2.70883        1.39129        1.10393
O          0.57534        2.66775        0.85589
O          1.25511        1.06540       -0.86956
C          2.60406        3.30225       -0.69046
H          2.95252        4.03903        0.03382
H          3.44789        2.84263       -1.20542
H          1.91438        3.75659       -1.40176
S          2.06371       -2.20370       -0.11037
O          2.31657       -3.54085       -0.60782
O          0.72710       -1.87926        0.39664
O          2.42114       -1.19366       -1.27502
H          2.01247       -0.28226       -1.10389
C          3.24299       -1.80044        1.15612
H          3.03639       -2.45177        2.00619
H          4.23861       -1.99097        0.75548
H          3.11411       -0.74606        1.41333
N         -4.96960       -0.02362        0.40055
C         -5.13926       -1.32542        1.03417
C         -5.70592        0.08958       -0.85143
H         -5.27947        0.70196        1.03872
H         -4.69859       -2.09997        0.39685
H         -4.61305       -1.34402        1.99233
H         -6.19364       -1.59433        1.20873
H         -5.30233       -0.62697       -1.57571
H         -6.78450       -0.11247       -0.74817
H         -5.57967        1.09262       -1.26872
N         -1.33679        0.37440       -0.25519
C         -1.81806       -0.80290       -1.02025
H         -1.62635       -0.63079       -2.08042
H         -1.26503       -1.67915       -0.68421
H         -2.88897       -0.90647       -0.83739
C         -1.49044        0.18106        1.21241
H         -0.94678       -0.72005        1.49260
H         -1.05423        1.04885        1.70792
H         -2.55694        0.09024        1.42489
C         -2.00152        1.62525       -0.70105
H         -1.55117        2.45617       -0.15776
H         -1.82647        1.74955       -1.77057
H         -3.06895        1.53131       -0.49284
H         -0.31545        0.49991       -0.45034
