40
2msa1dma1eda_85.log	Energy: -1038032.1894928
S          2.24435       -0.79779        1.03789
O          3.62226       -1.27115        1.10544
O          1.73336       -0.66816       -0.37578
O          1.99260        0.46842        1.79291
H          0.92836        1.60282        1.37730
C          1.18772       -2.01999        1.79804
H          1.48645       -2.11281        2.84270
H          0.15122       -1.68372        1.71736
H          1.34097       -2.96798        1.27969
S         -2.61430        0.22151        0.50897
O         -2.27294        1.47368        1.23747
O         -1.87540       -0.96591        0.98604
O         -2.49206        0.38170       -0.97293
H         -1.24711       -0.63360       -1.50437
C         -4.34393       -0.05418        0.84058
H         -4.46574       -0.17234        1.91736
H         -4.90278        0.80959        0.48063
H         -4.65118       -0.95955        0.31687
N         -0.45495       -1.26631       -1.76970
C          0.01813       -0.92933       -3.12814
C         -0.88775       -2.66669       -1.59319
H          0.32835       -1.06858       -1.09606
H         -0.80060       -1.05276       -3.83918
H          0.36944        0.10502       -3.13151
H          0.84549       -1.59052       -3.39182
H         -1.67517       -2.89602       -2.31356
H         -0.03475       -3.32885       -1.75212
H         -1.27076       -2.77034       -0.57743
H          2.56750        2.28011       -0.10949
H          2.03908        3.59357       -1.17376
H         -0.25901        2.93847       -1.00270
H          0.18891        1.24502       -0.81108
H          0.49086        3.24090        1.32437
H         -0.70971        2.05768        1.17729
H          3.02299        2.09955       -2.61147
H          2.38908        0.79171       -1.84945
C          1.90328        2.53033       -0.94945
C          0.45574        2.26166       -0.53174
N          2.19322        1.74694       -2.14809
N          0.27969        2.32131        0.94335
