37
2msa1ma1eda_523.log	Energy: -1013349.6146824
S          0.90499       -0.77021        0.37267
O          0.29425       -1.02601       -0.92822
O          0.97513        0.69391        0.72141
O          2.29566       -1.35652        0.51888
H          3.23743       -0.25100        0.88012
C         -0.07838       -1.55127        1.62742
H         -1.07641       -1.10079        1.57970
H         -0.11171       -2.61802        1.40228
H          0.39335       -1.37650        2.59470
S         -3.54970       -0.23931       -0.17267
O         -4.98248       -0.27457        0.11006
O         -2.67236        0.06560        0.99157
O         -3.18747        0.67397       -1.32203
H         -1.94489        1.42769       -0.96793
C         -3.07242       -1.86970       -0.73385
H         -3.30001       -2.58087        0.06188
H         -3.65451       -2.10364       -1.62586
H         -2.00448       -1.85672       -0.96079
N         -1.14089        2.07435       -0.61122
H         -0.41168        1.49284       -0.16232
C         -1.71074        3.02551        0.36747
H         -0.93397        3.69151        0.74665
H         -2.50201        3.60015       -0.11436
H         -2.13939        2.43079        1.17440
H         -0.72487        2.54564       -1.41036
H          5.83438       -0.47695        0.05537
H          6.07410        0.55584       -1.35281
H          5.13446        2.01942        0.24857
H          3.76661        1.57980       -0.80838
H          4.30824        0.61488        1.91884
H          2.90510        1.28554        1.29278
H          5.00737       -1.39256       -2.13233
H          3.73571       -1.22940       -1.09718
C          5.30281        0.08224       -0.73758
C          4.49467        1.20081       -0.08871
N          4.46205       -0.72488       -1.60167
N          3.72530        0.70168        1.08932
