34
2msa1a1eda_17.log	Energy: -988713.6198433
S         -2.90870        0.00638        0.02090
O         -2.99753       -0.71947        1.30000
O         -2.13514       -0.76628       -1.00543
O         -2.38795        1.39688        0.13379
C         -4.56388        0.16592       -0.62441
H         -5.14675        0.75452        0.08444
H         -4.50759        0.66952       -1.58941
H         -4.98722       -0.83260       -0.73470
S          2.18343       -1.33080       -0.18076
O          2.16787       -0.15976       -1.09816
O          1.71562       -2.59122       -0.78846
O          1.46081       -1.02208        1.09606
C          3.89507       -1.57542        0.26086
H          4.44737       -1.79458       -0.65323
H          4.26858       -0.66373        0.72770
H          3.95158       -2.41367        0.95535
N         -0.77991       -2.52146        0.52160
H         -1.28700       -1.91385       -0.17827
H         -0.06982       -1.92262        0.99420
H         -1.46463       -2.87798        1.18302
H         -0.24699       -3.24641        0.03924
H          0.03267        2.81212        1.25148
H          0.86316        1.24039        1.40826
H          2.50558        3.14102        1.56191
H          2.80509        2.09318        0.16479
H          1.59622        4.75863        0.06949
H          2.81962        4.14901       -0.83186
H         -0.78228        1.50153       -0.44258
H          0.37407        2.51533       -1.16880
C          0.76531        2.13958        0.79793
C          2.10975        2.82421        0.58830
N          0.23480        1.72937       -0.52577
N          1.94725        3.91645       -0.37367
H          0.79078        0.92009       -0.87699
