43
2msa1eda1tma_200.log	Energy: -1062674.5218136
S         -1.06078       -2.35859       -0.67668
O         -1.99109       -3.44182       -0.90754
O          0.33854       -2.54678       -1.11384
O         -1.04174       -2.05444        0.86945
H         -0.19853       -1.53958        1.19014
C         -1.65646       -0.86291       -1.41362
H         -1.84251       -1.08559       -2.46547
H         -2.56828       -0.54468       -0.90050
H         -0.87728       -0.10178       -1.31694
S          1.73526        1.86424       -0.41732
O          1.10190        2.04817        0.90789
O          0.89651        1.10051       -1.36669
O          3.10537        1.25639       -0.30088
H          2.92882       -0.33308       -0.43685
C          1.98568        3.48904       -1.10319
H          2.61751        4.05668       -0.42012
H          2.46537        3.37766       -2.07547
H          1.00849        3.96160       -1.20652
H          2.19572       -2.91800        0.86931
H          3.84036       -2.25862        1.05297
H          2.50144       -1.62278        2.94902
H          2.97939       -0.18716        2.03584
H          0.52704       -0.62681        2.85641
H          0.86486        0.27989        1.55742
H          3.25245       -1.84775       -1.13314
H          1.69462       -1.47388       -0.79069
C          2.79065       -2.00196        0.89270
C          2.33794       -1.07563        2.01652
N          2.67144       -1.36677       -0.44944
N          0.92128       -0.68149        1.92104
N         -3.22119        1.35783        0.33814
C         -4.55844        1.53908        0.87037
H         -5.28186        1.59821        0.05152
H         -4.82524        0.68437        1.49921
H         -4.65042        2.45926        1.47992
C         -2.24380        1.19250        1.40061
H         -2.47642        0.29269        1.97889
H         -1.24655        1.08777        0.96547
H         -2.21552        2.06049        2.08650
C         -2.84444        2.44359       -0.55028
H         -1.85560        2.24579       -0.97615
H         -3.56674        2.51873       -1.36917
H         -2.80617        3.42081       -0.03141
