43
2msa1eda1tma_219.log	Energy: -1062671.7088016
S         -0.84101        2.43003       -0.17278
O          0.43412        2.45285        0.52879
O         -2.02326        2.00400        0.58125
O         -0.75026        1.62302       -1.50895
H         -0.11419        0.78251       -1.50801
C         -1.16933        4.05274       -0.82357
H         -1.29765        4.71959        0.02961
H         -0.31625        4.35727       -1.42911
H         -2.07989        4.01025       -1.42073
S          0.26999       -1.62159       -0.90793
O          0.69256       -0.38747       -1.64989
O         -0.83395       -2.35035       -1.56032
O         -0.05127       -1.29561        0.51838
H         -1.63195       -1.22497        0.71768
C          1.70521       -2.66245       -0.89618
H          1.97222       -2.85592       -1.93579
H          2.52085       -2.16152       -0.35919
H          1.42889       -3.59132       -0.39539
H          5.43659        0.45241        0.78014
H          4.89054       -0.18979       -0.77825
H          3.62792        1.83104       -0.20269
H          2.55630        0.43227       -0.24444
H          3.49769        1.79020        2.15310
H          1.97742        1.39508        1.69856
H          5.05895       -1.88652        1.04657
H          3.77144       -1.13672        1.74488
C          4.59147       -0.03778        0.26559
C          3.38060        0.88900        0.31001
N          4.23533       -1.32607        0.85815
N          2.94115        1.07719        1.69287
N         -2.67789       -1.35035        0.86785
C         -3.37625       -0.78595       -0.31681
H         -3.17117        0.28370       -0.35565
H         -2.97832       -1.27757       -1.20527
H         -4.44870       -0.96923       -0.21211
C         -2.88144       -2.81481        0.96796
H         -2.51017       -3.26777        0.04783
H         -2.30994       -3.19099        1.81717
H         -3.94498       -3.02285        1.10737
C         -3.03295       -0.63777        2.11795
H         -2.44569       -1.05539        2.93671
H         -2.79154        0.41737        1.98728
H         -4.09956       -0.77084        2.31535
