42
2msa2eda_473.log	Energy: -1072747.3836041
S          2.79220       -0.47164       -0.37788
O          3.92630        0.22996       -0.96759
O          1.49557       -0.15016       -1.10078
O          2.59977       -0.23366        1.08506
H          1.25557        0.61337        1.34200
C          3.02489       -2.22602       -0.56679
H          3.12999       -2.43588       -1.63152
H          3.93595       -2.49471       -0.03138
H          2.15871       -2.73816       -0.14280
S         -1.06221       -1.98878        0.43647
O         -1.14857       -1.01541        1.53018
O         -0.13345       -3.09686        0.60152
O         -0.75601       -1.23184       -0.92064
H          0.21832       -0.88535       -0.97710
C         -2.69665       -2.56582        0.07964
H         -3.04649       -3.07391        0.97929
H         -3.31959       -1.69253       -0.15465
H         -2.63806       -3.26051       -0.75822
H         -0.12730        3.26075        1.57434
H          1.28615        2.73961        2.53326
H          1.90790        4.17432        0.57342
H          2.66780        2.58214        0.50889
H          1.29042        3.62845       -1.51849
H          1.36218        2.01170       -1.27628
H         -0.26055        0.86652        2.03169
H         -0.04475        1.14714        0.43782
C          0.78792        2.66310        1.56443
C          1.70850        3.10896        0.42903
N          0.40260        1.24714        1.35615
N          1.05710        2.89296       -0.86330
H         -4.59599        2.34585       -0.84239
H         -4.81878        1.46379        0.68553
H         -2.68478        2.75260        0.56781
H         -2.46692        1.01498        0.87326
H         -1.12773        2.33790       -1.05314
H         -1.60774        0.77049       -1.28270
H         -5.33439        0.01171       -1.10775
H         -3.90344        0.29080       -1.83306
C         -4.22804        1.50405       -0.23652
C         -2.76485        1.75676        0.11570
N         -4.35731        0.21665       -0.92559
N         -1.92750        1.71086       -1.07730
