37
2msa1ma1eda_231.log	Energy: -1013361.3562630
S         -1.24499       -1.63554        0.49314
O         -0.89029       -1.35948       -0.92042
O         -2.65820       -1.40538        0.82156
O         -0.31956       -0.87319        1.40895
C         -0.90560       -3.36068        0.79599
H         -1.54120       -3.95241        0.13686
H          0.14876       -3.54764        0.58784
H         -1.13260       -3.56993        1.84144
S          2.55023       -0.21828       -0.51218
O          3.96798        0.07297       -0.44816
O          1.62241        0.89265       -0.76064
O          2.14759       -0.93721        0.82948
H          1.14033       -0.89098        1.03805
C          2.25219       -1.45683       -1.75218
H          2.54530       -1.02696       -2.71080
H          2.86887       -2.32433       -1.51645
H          1.18530       -1.69226       -1.73567
N          0.96328        3.21696        0.88142
H          1.68360        2.87011        0.25093
C          1.09835        2.55491        2.18704
H          2.08117        2.69727        2.65030
H          0.33159        2.93333        2.86808
H          0.93339        1.48188        2.05932
H          1.07885        4.22069        0.97013
H         -2.15221        3.11252       -1.25509
H         -1.22177        1.98716       -2.27778
H         -3.74310        1.52354       -2.27797
H         -2.76618        0.15134       -1.73290
H         -4.69248        1.55225       -0.20388
H         -3.78335        0.22898        0.23124
H         -0.38038        2.39318        0.13508
H         -1.75197        1.46262        0.53961
C         -1.85837        2.06897       -1.39477
C         -3.09327        1.16342       -1.47385
N         -1.07305        1.66505       -0.20744
N         -3.76176        1.16066       -0.17632
H         -0.53444        0.81060       -0.39677
