42
2msa2eda_467.log	Energy: -1072746.5473912
S          2.49763        0.32784       -0.09564
O          3.56566        1.24701       -0.47973
O          2.17649       -0.67144       -1.17390
O          1.23755        1.02896        0.33817
H          0.62809        2.02792       -0.69879
C          2.99845       -0.61888        1.32273
H          3.89091       -1.18106        1.04622
H          3.21525        0.07544        2.13492
H          2.17390       -1.28384        1.58358
S         -0.77420       -2.26923       -0.21010
O         -2.09419       -1.66893       -0.03775
O          0.13586       -2.28664        0.92713
O         -0.08827       -1.59874       -1.45049
H          0.88342       -1.23261       -1.25995
C         -1.01313       -3.93808       -0.77934
H         -1.53943       -4.47564        0.01022
H         -1.60997       -3.90943       -1.69070
H         -0.03475       -4.38137       -0.96349
H         -0.89406       -0.36510        2.41276
H         -1.71513        0.48320        3.72183
H         -1.94667        2.50813        2.25015
H         -1.04125        1.67092        0.99615
H         -2.85896        0.04922        0.92479
H         -3.72825        0.97841        1.95406
H          0.83554        1.26323        2.50469
H          0.12362        2.03329        3.76740
C         -1.05796        0.62383        2.85386
C         -1.75093        1.51845        1.81674
N          0.22983        1.13240        3.31151
N         -2.99848        1.00575        1.24939
H         -0.54983        2.27190       -3.42169
H          0.27356        0.87192       -2.67845
H         -2.29636        0.68255       -2.71160
H         -1.56327        0.50686       -1.13041
H         -3.15209        2.75006       -2.02853
H         -2.96334        2.08314       -0.51708
H          0.88391        3.23756       -1.85268
H         -0.63651        3.13055       -1.10302
C         -0.41268        1.70136       -2.49921
C         -1.75391        1.22535       -1.93037
N          0.17885        2.60766       -1.47802
N         -2.47831        2.36749       -1.37610
