42
2msa2eda_561.log	Energy: -1072742.8155861
S          1.45908        1.90798        0.44029
O          2.60537        0.97717        0.51572
O          0.79269        2.19410        1.72159
O          0.47463        1.46942       -0.61487
C          2.10950        3.46287       -0.15460
H          2.83667        3.81975        0.57535
H          2.58634        3.29428       -1.12050
H          1.28438        4.16905       -0.24913
S         -3.13236        0.10158       -0.34016
O         -2.17952       -0.98562       -0.52120
O         -4.52039       -0.19421       -0.03569
O         -3.11156        0.92773       -1.73986
H         -4.02412        1.15914       -1.96481
C         -2.46200        1.27712        0.79969
H         -2.37186        0.76678        1.76152
H         -1.47722        1.58126        0.43094
H         -3.15397        2.11649        0.86588
H          1.41870       -2.41898       -2.78031
H          1.14484       -0.77894       -3.42309
H          3.55563       -1.25687       -2.92135
H          2.92525        0.13959       -2.03896
H          4.17570       -1.95070       -0.87682
H          3.16113       -0.91252       -0.11192
H         -0.47020       -1.19036       -1.73976
H          0.61133       -1.78384       -0.65945
C          1.46277       -1.35173       -2.54753
C          2.87311       -0.95398       -2.12074
N          0.50418       -1.09363       -1.44900
N          3.22740       -1.59883       -0.86160
H          0.58224       -0.10761       -1.07904
H          0.00084       -3.41321        2.69717
H          1.57579       -3.54029        1.88147
H          1.35061       -1.51243        3.32825
H          1.77734       -1.16069        1.65122
H          0.03370        0.26366        2.48987
H         -0.51454       -0.61745        1.26328
H          0.01571       -3.97677        0.24966
H         -0.96733       -2.74978        0.67234
C          0.64500       -2.96697        1.92738
C          0.97147       -1.52902        2.30125
N          0.01112       -3.02328        0.59730
N         -0.22463       -0.68869        2.23584
