42
2msa2eda_388.log	Energy: -1072752.4844654
S         -2.50775       -0.46969        0.51797
O         -1.98705       -1.75924       -0.04103
O         -2.91703        0.49014       -0.51868
O         -1.54987        0.12469        1.49684
C         -3.96275       -0.92943        1.43757
H         -4.66822       -1.38409        0.74188
H         -3.66946       -1.64001        2.21012
H         -4.38330       -0.02543        1.87825
S          1.40116       -1.84099       -0.95308
O          1.26792       -0.38066       -1.13054
O          1.32625       -2.64837       -2.15562
O          0.41644       -2.33703        0.15430
H         -0.59009       -2.07930        0.01883
C          2.93836       -2.12625       -0.11345
H          3.73120       -1.80589       -0.79043
H          2.92151       -1.53196        0.80320
H          3.02185       -3.19253        0.09634
H         -1.84108        2.46314       -1.38230
H         -0.83655        3.77674       -0.72106
H         -0.47373        3.65317       -3.13215
H          1.00345        3.15545       -2.32541
H          0.56869        0.90154       -2.89431
H         -0.93365        1.25718       -3.46434
H         -0.83645        1.52844        0.48371
H          0.04446        0.95135       -0.75415
C         -0.81591        2.79895       -1.21069
C         -0.03189        2.85457       -2.52588
N         -0.20176        1.83060       -0.27375
N         -0.00516        1.63172       -3.30391
H          0.70438        2.14969        0.15299
H          3.39721        1.66431        2.74431
H          2.28516        3.04604        2.73616
H          1.37920        1.13010        4.02315
H          0.34228        1.54835        2.66830
H          1.68349       -0.90085        3.08106
H          0.52257       -0.52429        1.99497
H          3.12637        2.56858        0.51335
H          2.48108        1.06185        0.58492
C          2.42484        2.02172        2.37381
C          1.31862        1.12469        2.92787
N          2.36572        2.02408        0.90682
N          1.41892       -0.22675        2.37324
