37
2msa1ma1eda_01.log	Energy: -1013376.9875741
S          2.92434        0.28976       -0.16803
O          2.55199        1.50010       -0.94749
O          3.04499       -0.94263       -0.96862
O          1.99734        0.10300        0.99886
C          4.53177        0.62866        0.52617
H          5.22913        0.77894       -0.29834
H          4.46043        1.52745        1.13866
H          4.83084       -0.22807        1.13036
S         -2.47087       -1.04610       -0.06219
O         -3.12141        0.03330        0.69721
O         -1.99805       -2.18791        0.76736
O         -1.36786       -0.54992       -0.95160
C         -3.70527       -1.71717       -1.16294
H         -4.52212       -2.10486       -0.55372
H         -4.05703       -0.91489       -1.81185
H         -3.24971       -2.51516       -1.74928
N          0.70454       -2.20781        0.29072
H          0.67395       -2.00136       -0.70908
H          1.12137       -1.34601        0.71386
C          1.54237       -3.38908        0.57517
H          1.59562       -3.53077        1.65435
H          1.09839       -4.27097        0.11313
H          2.53742       -3.20712        0.16977
H         -0.28805       -2.30447        0.60074
H         -0.26894        3.89894       -0.38863
H         -0.97878        3.03026       -1.76893
H         -2.69848        3.98372       -0.10901
H         -2.85252        2.24951       -0.41755
H         -2.32066        3.43748        2.06810
H         -2.48919        1.83414        1.68749
H          0.88354        1.80786       -0.62167
H         -0.09471        1.78633        0.73883
C         -0.86244        3.02957       -0.68310
C         -2.21417        3.01270        0.03813
N         -0.10549        1.82332       -0.28754
N         -2.01268        2.69987        1.44993
H         -0.58019        0.94723       -0.60178
