40
2msa1dma1eda_247.log	Energy: -1038020.5469331
S          2.79465        1.30189       -0.05133
O          2.92411       -0.16435       -0.57790
O          2.72825        1.34328        1.40213
O          1.72390        2.00843       -0.77078
C          4.34555        1.95516       -0.61675
H          4.40261        1.82300       -1.69674
H          4.35954        3.01336       -0.35442
H          5.14741        1.41870       -0.11030
S          0.09957       -2.34759       -0.12239
O         -0.47689       -1.39610       -1.11046
O         -0.84323       -2.76661        0.92385
O          1.37437       -1.80781        0.46433
H          2.24482       -0.83748       -0.15175
C          0.56327       -3.79963       -1.04486
H          1.27729       -3.50402       -1.81366
H          1.01167       -4.50949       -0.34962
H         -0.33890       -4.21603       -1.49316
N         -3.47115        1.37106       -0.73050
C         -3.44170        0.73608       -2.04526
C         -4.49588        2.39710       -0.60919
H         -3.59571        0.64339       -0.02012
H         -3.14625        1.46983       -2.80276
H         -2.70598       -0.07345       -2.04182
H         -4.41678        0.31665       -2.33739
H         -4.28386        3.21303       -1.30809
H         -5.50866        2.02132       -0.82509
H         -4.48872        2.80988        0.40370
H          0.05619        0.06046        1.68124
H         -0.19404        1.78053        1.95236
H         -1.72867        0.38464        3.28977
H         -2.58761        1.50954        2.23317
H         -2.15463       -1.30206        1.44512
H         -3.51934       -0.73865        2.15215
H         -0.02265        1.61258       -0.30738
H         -0.77640        0.14851       -0.41418
C         -0.65192        0.88080        1.53783
C         -1.97430        0.59836        2.23921
N         -0.81623        1.07355        0.06910
N         -2.72773       -0.46551        1.57977
H         -1.74731        1.49114       -0.19531
