38
2msa1ma1tma_85.log	Energy: -1003282.1963483
S         -2.56631       -0.24427       -0.14382
O         -3.49559       -0.37759       -1.24859
O         -2.81966        0.76609        0.87999
O         -1.10488        0.08879       -0.68668
C         -2.35481       -1.83256        0.63289
H         -1.53016       -1.77882        1.34563
H         -3.30161       -2.06487        1.12193
H         -2.12603       -2.56489       -0.14170
S          1.42640       -1.71423        0.00625
O          0.88629       -2.01128        1.34378
O          2.06180       -0.36685       -0.07053
O          0.42051       -1.89184       -1.09329
H         -0.57563       -0.73425       -0.98829
C          2.70539       -2.90497       -0.33909
H          3.47288       -2.80536        0.42868
H          2.25533       -3.89717       -0.30679
H          3.11376       -2.69753       -1.32800
N          1.76835        2.05229       -1.86221
H          2.61365        2.41024       -2.29477
C          0.64687        2.12848       -2.80252
H          0.81702        1.60416       -3.75277
H         -0.24097        1.69564       -2.33515
H          0.43011        3.17768       -3.02713
H          1.95596        1.08347       -1.60780
N          0.74739        1.76542        1.18953
C          2.12232        2.25127        1.46606
H          2.73181        1.39977        1.76629
H          2.51274        2.67918        0.54269
H          2.07757        3.00036        2.25934
C         -0.13318        2.85775        0.69926
H          0.32173        3.26633       -0.20304
H         -1.11589        2.43928        0.48514
H         -0.20855        3.61566        1.48229
C          0.16412        1.06167        2.36373
H         -0.87718        0.82687        2.14162
H          0.72752        0.14296        2.53254
H          0.22031        1.72674        3.22826
H          0.86203        1.05837        0.44151
