38
2msa2dma_74.log	Energy: -1003283.2644635
S          1.86387       -0.05651       -0.98928
O          2.39776        0.15798        0.38692
O          1.00442        1.03196       -1.47676
O          1.20507       -1.40356       -1.08401
H         -0.32469       -1.58927       -1.33023
C          3.28407       -0.13498       -2.06109
H          3.80072        0.82288       -1.99936
H          3.92860       -0.94573       -1.72178
H          2.92969       -0.31850       -3.07553
S         -2.21322       -0.79136       -0.60154
O         -3.53926       -1.36157       -0.51787
O         -1.31469       -1.78917       -1.43260
O         -1.51504       -0.47983        0.66107
H         -0.14588       -1.04465        1.47811
C         -2.22706        0.68629       -1.58155
H         -2.80334        0.47560       -2.48246
H         -2.67801        1.47747       -0.98076
H         -1.19070        0.94439       -1.80859
N          0.73572       -1.25054        1.99210
C          1.02851       -2.69513        1.87985
C          0.62218       -0.74382        3.37384
H          1.46503       -0.70640        1.46375
H          0.20738       -3.26535        2.31705
H          1.13371       -2.92981        0.82062
H          1.95942       -2.91399        2.40545
H         -0.19046       -1.26235        3.88499
H          1.56335       -0.91505        3.89847
H          0.41080        0.32478        3.33545
N         -0.68087        2.81893        0.48541
C         -0.81860        2.56310        1.90537
C          0.01659        4.06192        0.20580
H         -0.16976        2.05839        0.04551
H         -1.44558        3.33771        2.36167
H         -1.31421        1.59926        2.05220
H          0.14819        2.56176        2.44747
H         -0.58907        4.91048        0.54498
H          1.00330        4.13303        0.69812
H          0.16679        4.16178       -0.87209
