43
2msa1eda1tma_225.log	Energy: -1062672.0874659
S          0.25955        2.37757       -0.05158
O         -0.87415        3.00516        0.62087
O         -0.01184        1.76656       -1.35459
O          0.94029        1.31985        0.89461
H          0.44964        0.40626        0.85506
C          1.59797        3.53153       -0.20451
H          1.26543        4.31275       -0.88874
H          1.80521        3.94410        0.78268
H          2.46293        2.99470       -0.60259
S         -0.35635       -1.99911       -0.11550
O          0.27749       -3.20237        0.41481
O         -0.30816       -0.82551        0.83362
O         -1.78468       -2.17324       -0.53662
H         -2.62114       -0.91866       -0.05069
C          0.53320       -1.51644       -1.58210
H          1.60220       -1.54163       -1.35136
H          0.30232       -2.25470       -2.35115
H          0.20686       -0.51821       -1.87921
H          5.08810       -0.10487        0.33498
H          3.89865        0.82646        1.23586
H          3.82505       -1.50520        1.94417
H          2.30233       -1.03835        1.19755
H          4.32895       -2.73220       -0.04581
H          2.73273       -3.02789        0.21016
H          3.67963       -0.09631       -1.53253
H          2.46882        0.61738       -0.72995
C          4.01021        0.05349        0.46681
C          3.35785       -1.23378        0.98373
N          3.48134        0.57092       -0.79308
N          3.41022       -2.30328       -0.01179
N         -3.36195       -0.17366        0.12997
C         -4.64355       -0.91534        0.15972
H         -4.75116       -1.46614       -0.77490
H         -4.62191       -1.62072        0.99065
H         -5.46904       -0.21038        0.28241
C         -3.08278        0.49467        1.42576
H         -2.93537       -0.27056        2.18752
H         -2.18181        1.09810        1.33195
H         -3.93001        1.13623        1.68103
C         -3.29650        0.77512       -1.00935
H         -2.29721        1.20948       -1.05577
H         -3.49875        0.22639       -1.92988
H         -4.04089        1.56173       -0.86570
