35
2msa1ma1dma_172.log	Energy: -978622.2960340
S         -0.56580       -1.58292       -0.33356
O         -0.49117       -1.03350        1.04712
O         -0.07813       -0.59021       -1.34429
O         -1.93175       -2.06819       -0.66601
H         -3.04649       -1.00425        0.23017
C          0.53150       -2.97660       -0.42676
H          1.54258       -2.61290       -0.23392
H          0.21533       -3.70266        0.32225
H          0.45215       -3.39472       -1.43039
S          3.00310        0.43973        0.15717
O          4.15756        1.30735        0.04990
O          3.13243       -0.99036       -0.09574
O          1.88557        1.03735       -0.80543
H          1.18752        0.34684       -1.02292
C          2.27393        0.64520        1.76984
H          2.99343        0.26367        2.49573
H          2.09926        1.70935        1.93100
H          1.34495        0.07013        1.79845
N         -3.19551       -0.18060        0.85117
H         -2.55897       -0.35956        1.63162
C         -4.59420        0.04167        1.25076
H         -4.65266        0.90391        1.91603
H         -5.18871        0.23651        0.35782
H         -4.98773       -0.83895        1.75941
H         -2.75522        0.65568        0.29340
N         -1.85718        1.72125       -0.55354
C         -0.97673        2.39157        0.40670
C         -2.55028        2.65046       -1.44366
H         -1.28634        1.07629       -1.10621
H         -1.57588        3.03069        1.06461
H         -0.47368        1.63024        1.00764
H         -0.21299        3.00800       -0.08368
H         -3.21656        3.29162       -0.85713
H         -1.85643        3.29550       -1.99954
H         -3.15283        2.08799       -2.16109
