29
2msa1a1ma_150.log	Energy: -929288.0907561
S         -2.26430       -0.95619        0.01441
O         -2.76285        0.00706       -0.95841
O         -1.80062       -0.44647        1.29961
O         -1.14503       -1.87369       -0.63664
H         -0.29969       -1.35416       -0.77470
C         -3.49774       -2.20665        0.27585
H         -4.36252       -1.70545        0.71152
H         -3.75140       -2.64669       -0.68799
H         -3.09650       -2.95273        0.96087
S          1.93714        0.25136       -0.11872
O          1.02571       -0.46180       -1.02611
O          3.01328        1.00499       -0.75268
O          2.56314       -0.78944        0.89252
H          3.55301       -0.96579        0.64265
C          0.97890        1.27952        0.94645
H          0.39808        1.95680        0.30112
H          0.29593        0.63874        1.50775
H          1.66435        1.81637        1.60196
N          5.05528       -1.05857        0.12351
H          5.26939       -1.89139       -0.41568
H          5.77780       -0.94072        0.82615
H          5.08087       -0.25644       -0.50369
N         -1.36698        2.77513       -0.65521
H         -1.39664        3.53179       -1.32944
C         -2.15734        3.09822        0.53113
H         -3.21769        3.30811        0.32943
H         -2.11211        2.25332        1.22460
H         -1.72535        3.96986        1.03325
H         -1.75298        1.94793       -1.10378
