32
2msa1a1dma_134.log	Energy: -953955.3511227
S          1.19313       -1.31929       -0.42380
O          0.50154       -0.54710       -1.50778
O          0.79917       -2.75205       -0.41471
O          0.99547       -0.68643        0.90867
H         -0.37105       -1.60344        1.80182
C          2.91820       -1.22037       -0.81757
H          3.05920       -1.64071       -1.81357
H          3.18990       -0.15815       -0.77693
H          3.46317       -1.80027       -0.07193
S         -2.41785        0.60811        0.02191
O         -1.96975        1.14289        1.29796
O         -2.74880       -0.83304        0.01487
O         -1.43807        0.93738       -1.13799
H         -0.61286        0.27942       -1.24035
C         -3.85238        1.49815       -0.52650
H         -4.62024        1.36617        0.23619
H         -3.58264        2.54953       -0.62347
H         -4.17341        1.08377       -1.48145
N         -1.05373       -2.34501        1.55445
H         -1.36062       -2.88886        2.35420
H         -0.52844       -2.90311        0.85014
H         -1.84338       -1.86782        1.06661
N          3.10125        2.00195       -0.04569
C          3.37236        1.77805        1.36793
C          1.76283        2.53472       -0.27379
H          3.79055        2.63947       -0.42957
H          2.68407        1.01104        1.73638
H          4.39591        1.41220        1.49576
H          3.24427        2.68206        1.98849
H          1.02648        1.82214        0.10599
H          1.58836        3.50217        0.22825
H          1.59103        2.65811       -1.34618
