34
2msa1a1eda_161.log	Energy: -988700.7160210
S          2.41256        0.32846       -0.32721
O          2.06371        1.29661        0.72695
O          1.73770        0.51359       -1.60524
O          2.24430       -1.12199        0.20552
C          4.17282        0.39750       -0.55269
H          4.41336        1.40663       -0.88815
H          4.65157        0.18263        0.40228
H          4.44820       -0.34002       -1.30581
S         -1.18866       -1.83475       -0.12124
O         -1.84606       -1.21096       -1.27405
O         -1.20033       -0.96759        1.09405
O          0.19723       -2.33733       -0.41002
H          1.33271       -1.60082       -0.07506
C         -2.10267       -3.30382        0.30409
H         -3.12917       -3.00970        0.52376
H         -2.07057       -3.97857       -0.55152
H         -1.63407       -3.76136        1.17516
N          0.12948        0.90284        3.13805
H         -0.23517       -0.01583        2.89473
H          0.11489        0.99120        4.14780
H          1.09908        0.92255        2.83274
H         -0.69246        2.93230       -1.18471
H         -0.69095        1.18929       -1.53547
H         -2.90824        2.19054       -2.09425
H         -3.02746        0.99187       -0.80885
H         -3.19337        3.90054       -0.47113
H         -4.16847        2.73878        0.13899
H          0.22238        1.78406        0.69098
H         -1.31237        2.30716        1.12213
C         -1.13505        1.96905       -0.91576
C         -2.65071        1.99075       -1.04634
N         -0.78551        1.69129        0.49808
N         -3.20873        2.95764       -0.09772
H         -1.02759        0.70740        0.75942
