35
2msa1a1tma_20.log	Energy: -978628.5205953
S          1.90542       -1.09246       -0.04349
O          1.13768       -1.98292        0.83989
O          2.77748       -0.11596        0.62849
O          0.99411       -0.39149       -1.03729
C          2.95601       -2.12748       -1.04985
H          3.62216       -2.67399       -0.38172
H          2.32429       -2.81688       -1.61036
H          3.52778       -1.48933       -1.72369
S         -2.24607       -0.80871       -0.02079
O         -3.63175       -0.68811       -0.42770
O         -1.62451        0.33963        0.65861
O         -1.39470       -1.15037       -1.29993
H         -0.40063       -0.90414       -1.17322
C         -2.04082       -2.23181        1.01933
H         -2.58750       -2.03719        1.94287
H         -2.46188       -3.09016        0.49580
H         -0.97035       -2.35597        1.20093
N          0.73307        1.25260        2.49438
H          0.80541        1.44101        3.48881
H          1.57370        0.74739        2.21373
H         -0.04401        0.60787        2.36514
N          0.07315        2.34023       -0.37359
C          1.50979        2.71885       -0.35280
H          1.82958        2.75468        0.68727
H          2.07429        1.94765       -0.87397
H          1.61843        3.69190       -0.83706
C         -0.44312        2.20745       -1.75917
H          0.16948        1.47504       -2.28258
H         -1.47544        1.86086       -1.71482
H         -0.38875        3.18285       -2.24685
C         -0.75388        3.26866        0.43931
H         -1.78299        2.91143        0.42574
H         -0.36653        3.23747        1.45753
H         -0.68042        4.26921        0.00785
H         -0.01408        1.40900        0.06397
