38
2msa2dma_236.log	Energy: -1003269.8762415
S         -0.39663        2.71235       -0.06204
O         -0.58833        3.98477       -0.72772
O          0.88505        2.38478        0.54891
O         -0.77402        1.57097       -1.10646
H         -0.26628        0.71402       -0.90473
C         -1.66015        2.52279        1.18033
H         -1.46447        3.26895        1.95159
H         -2.62791        2.70749        0.71284
H         -1.58904        1.50908        1.57948
S          0.07590       -1.30341        0.70119
O          0.35331       -0.68421       -0.63494
O          0.02184       -2.76746        0.64547
O         -1.20379       -0.70972        1.25926
H         -2.34794       -1.07660        0.32692
C          1.36548       -0.78123        1.79546
H          2.31749       -1.12004        1.36769
H          1.33767        0.30979        1.83156
H          1.17687       -1.22426        2.77356
N          3.99395       -0.97824       -0.14317
C          3.77864        0.43715       -0.41906
C          3.58915       -1.83144       -1.25269
H          4.97110       -1.14021        0.07424
H          2.70736        0.62474       -0.53613
H          4.12856        1.03721        0.42545
H          4.28712        0.78724       -1.33367
H          2.51314       -1.71589       -1.41277
H          4.10344       -1.59028       -2.19978
H          3.78569       -2.87851       -1.00574
N         -3.08382       -1.45847       -0.37633
C         -3.19342       -2.91976       -0.13639
C         -2.65015       -1.10689       -1.75354
H         -3.97194       -1.00361       -0.17144
H         -2.19151       -3.34653       -0.21282
H         -3.56762       -3.08041        0.87465
H         -3.86938       -3.36379       -0.86914
H         -1.67007       -1.55410       -1.92257
H         -3.37898       -1.48381       -2.47314
H         -2.55243       -0.02324       -1.82670
