38
2msa2dma_30.log	Energy: -1003288.9422570
S          2.45175       -0.56859       -0.17278
O          3.56320       -1.45072       -0.46542
O          1.08977       -1.05170       -0.42347
O          2.68252        0.76968       -0.96578
C          2.52015       -0.05751        1.53101
H          2.40668       -0.95576        2.14020
H          3.49142        0.40456        1.70745
H          1.69739        0.64035        1.70801
S         -0.57512        2.08247        0.00293
O         -0.42443        1.40190        1.30919
O         -1.52231        1.39007       -0.90978
O          0.73267        2.38528       -0.64731
H          1.88105        1.39247       -0.87235
C         -1.29699        3.68043        0.32680
H         -0.62283        4.23215        0.98186
H         -1.41788        4.19550       -0.62604
H         -2.26244        3.52532        0.80890
N         -1.69643       -1.28057       -1.33745
C         -3.15303       -1.16248       -1.53567
C         -1.04185       -2.26908       -2.21361
H         -1.29105       -0.33182       -1.43670
H         -3.63117       -2.11056       -1.28096
H         -3.52142       -0.36602       -0.88984
H         -3.36532       -0.91078       -2.57644
H         -1.46904       -3.25509       -2.01874
H         -1.21049       -2.00119       -3.25880
H          0.02416       -2.26878       -1.99185
H         -1.51553       -1.48750       -0.28945
N         -1.31680       -1.44517        1.36519
C         -0.59331       -2.58177        1.92475
C         -2.53308       -1.11699        2.10293
H         -0.71906       -0.61498        1.36607
H         -1.20752       -3.48566        1.84910
H          0.32454       -2.73571        1.35328
H         -0.33743       -2.43580        2.98524
H         -3.26352       -1.92732        1.99984
H         -2.34578       -0.95809        3.17486
H         -2.96084       -0.19880        1.69316
