35
2msa1ma1dma_147.log	Energy: -978623.5535065
S         -2.85131        0.54670        0.40080
O         -3.76328        1.53230        0.94371
O         -3.07331       -0.87466        0.61984
O         -1.38830        0.91680        0.92929
H         -0.79303        0.07977        0.98163
C         -2.69715        0.81725       -1.35427
H         -3.66094        0.56803       -1.80026
H         -2.47102        1.87124       -1.52143
H         -1.90806        0.16180       -1.72916
S          0.54410       -1.68811       -0.34711
O          0.29210       -0.95971        0.94600
O          1.94171       -2.13133       -0.44794
O          0.09079       -0.85231       -1.50149
H          0.61840        0.79729       -1.19611
C         -0.51329       -3.11698       -0.32509
H         -0.19880       -3.75246        0.50289
H         -1.53671       -2.76661       -0.17823
H         -0.39997       -3.63526       -1.27738
N          0.97313        1.62668       -0.67110
H          0.23623        1.84553        0.00561
C          1.30911        2.76642       -1.54133
H          1.69593        3.58739       -0.93660
H          2.07257        2.45221       -2.25343
H          0.42609        3.10223       -2.08646
H          1.85631        1.23889       -0.13882
N          3.12934        0.50216        0.53638
C          3.01723        0.61528        1.99177
C          4.42697        0.93655        0.02465
H          2.96617       -0.47325        0.27075
H          3.05376        1.67118        2.28152
H          2.06136        0.18917        2.30221
H          3.82872        0.08831        2.51225
H          4.55775        2.00811        0.21019
H          5.26458        0.40578        0.49834
H          4.47385        0.76148       -1.05333
