32
2msa1a1dma_155.log	Energy: -953952.7458414
S          1.35491       -1.11821       -0.41124
O          0.61115       -0.47247        0.73301
O          2.50155       -1.89556        0.05744
O          1.73271       -0.04457       -1.40465
H          2.39187        1.07534       -0.71606
C          0.20521       -2.17344       -1.25045
H         -0.19130       -2.87151       -0.50667
H         -0.59609       -1.54831       -1.64962
H          0.74707       -2.68316       -2.04755
S         -2.57212        0.57218       -0.14080
O         -3.13708       -0.35071        0.83485
O         -2.34820        0.08890       -1.49639
O         -1.24031        1.21718        0.42792
H         -0.50373        0.50315        0.52018
C         -3.58189        2.03463       -0.19983
H         -4.55591        1.72241       -0.57813
H         -3.67217        2.43845        0.80803
H         -3.11958        2.75095       -0.87827
N         -1.25611       -2.83581        1.62208
H         -0.49238       -2.24185        1.93302
H         -1.50725       -3.45606        2.38370
H         -2.04619       -2.22064        1.44088
N          2.90682        1.83305       -0.10672
C          4.01649        1.14001        0.59310
C          1.92108        2.45692        0.80858
H          3.28049        2.53384       -0.74441
H          3.59431        0.30314        1.15148
H          4.70734        0.74402       -0.15090
H          4.52747        1.83498        1.26190
H          1.53364        1.67550        1.46256
H          2.40243        3.24598        1.38956
H          1.09639        2.85873        0.21973
