43
2msa1eda1tma_97.log	Energy: -1062682.4445222
S         -0.90441        2.16178       -0.31612
O         -2.14409        1.61805        0.27197
O         -0.74767        1.98210       -1.76196
O          0.29301        1.62369        0.45647
C         -0.89472        3.91364        0.01816
H         -1.75582        4.35174       -0.48729
H         -0.96358        4.06015        1.09592
H          0.03327        4.33067       -0.37343
S          3.07110       -0.30984        0.34238
O          2.20614       -1.50040        0.41106
O          3.50176        0.25773        1.60828
O          2.41396        0.76938       -0.58557
H          1.53825        1.16623       -0.19296
C          4.48220       -0.72172       -0.65334
H          4.13173       -1.09659       -1.61442
H          5.08679        0.17643       -0.77539
H          5.03475       -1.49075       -0.11284
H         -1.39754       -2.61177        2.07779
H         -0.58020       -1.46933        3.17192
H         -3.04730       -1.32781        3.34165
H         -2.33913        0.20427        2.81375
H         -4.35390       -0.83719        1.55347
H         -3.15742       -0.11732        0.70754
H          0.46196       -1.37012        1.03585
H         -0.97843       -1.17988        0.18754
C         -1.21920       -1.55445        2.28864
C         -2.54242       -0.83255        2.50634
N         -0.49093       -0.98902        1.13163
N         -3.37322       -0.91123        1.31016
H         -0.36433        0.03511        1.18843
N         -1.36261       -1.66849       -1.39498
C         -2.54185       -1.04708       -1.99691
H         -3.41216       -1.24674       -1.36785
H         -2.38772        0.03136       -2.06689
H         -2.73048       -1.45103       -3.00597
C         -0.16522       -1.39335       -2.19174
H         -0.04653       -0.31276       -2.30213
H          0.71577       -1.79443       -1.68168
H         -0.23639       -1.85100       -3.19265
C         -1.56433       -3.10247       -1.21524
H         -0.67914       -3.54332       -0.74392
H         -2.43014       -3.26416       -0.56644
H         -1.73370       -3.61804       -2.17526
