40
2msa1dma1eda_279.log	Energy: -1038019.3890213
S         -1.09455       -2.05308        0.41031
O         -1.26899       -1.26999       -0.81340
O         -2.28470       -2.41750        1.15785
O         -0.14283       -1.27385        1.39915
C         -0.15341       -3.50793        0.00438
H         -0.74372       -4.08766       -0.70563
H          0.78986       -3.18227       -0.43685
H          0.01484       -4.06986        0.92293
S          2.67724       -0.01447       -0.40538
O          2.97204        1.18426        0.40292
O          1.78315        0.25145       -1.55704
O          2.17801       -1.16319        0.42839
H          0.81215       -1.17432        1.01795
C          4.22399       -0.59731       -1.07280
H          4.63745        0.19481       -1.69733
H          4.89063       -0.82086       -0.23995
H          4.02728       -1.49146       -1.66418
N         -3.26104        1.53295       -0.79719
C         -3.82549        0.93564        0.41686
C         -3.57930        0.75584       -1.99872
H         -3.62828        2.47392       -0.90354
H         -3.39466       -0.05826        0.56279
H         -3.56956        1.55173        1.28350
H         -4.91889        0.83040        0.36676
H         -3.10693       -0.22532       -1.91088
H         -4.66174        0.61992       -2.13851
H         -3.17004        1.25886       -2.87885
H          1.17535        2.65811       -0.65315
H         -0.39894        3.43685       -0.95255
H          0.76180        4.16864        1.20111
H         -0.86923        3.52766        1.45672
H          1.57599        1.92472        1.81915
H          0.47966        2.36308        2.99120
H          0.02889        0.80403       -1.01003
H         -0.33982        0.99472        0.59052
C          0.15044        2.76150       -0.29308
C          0.14989        3.25666        1.15510
N         -0.47128        1.41573       -0.34575
N          0.60388        2.16846        2.00668
H         -1.50631        1.44746       -0.55973
