34
2msa1a1eda_194.log	Energy: -988703.6137530
S          1.36285       -1.75712       -0.30567
O          0.16953       -2.62023       -0.03199
O          2.62854       -2.46487       -0.43756
O          1.40270       -0.64439        0.71862
H          0.09072       -1.28372        2.64964
C          1.01736       -0.95483       -1.86474
H          0.94437       -1.73203       -2.62613
H          0.07817       -0.39992       -1.79157
H          1.85256       -0.29023       -2.09438
S         -2.60919        0.62050       -0.16785
O         -3.88202        1.32485       -0.11230
O         -1.90500        0.53620        1.16557
O         -1.64378        1.13811       -1.19167
H         -0.32586        1.71704       -0.42790
C         -2.93496       -1.07075       -0.64547
H         -1.99679       -1.63140       -0.66338
H         -3.63692       -1.49542        0.07419
H         -3.38926       -1.05165       -1.63653
N         -0.78242       -1.60828        2.23619
H         -1.33274       -2.13766        2.90528
H         -0.49535       -2.18123        1.39192
H         -1.30784       -0.76230        1.86279
H          1.74385        2.40287       -1.39079
H          1.12259        3.76262       -0.44201
H          3.46121        3.57176        0.10610
H          2.58258        2.98132        1.50056
H          3.10920        0.69952        0.72174
H          4.03708        1.35602       -0.47089
H          0.87634        0.90029        0.39365
H          0.13583        2.21924        1.08131
C          1.54716        2.75708       -0.37530
C          2.83464        2.74572        0.45784
N          0.51131        1.86642        0.20140
N          3.62064        1.53043        0.43575
