38
2msa2dma_163.log	Energy: -1003278.7340459
S         -1.14005        0.08700        0.87879
O         -2.21023        0.27718        1.84915
O          0.23474        0.03399        1.53515
O         -1.09315        1.11397       -0.20817
H          0.38061        1.76433       -0.29228
C         -1.35804       -1.48594        0.07940
H         -1.32160       -2.25713        0.85030
H         -2.34006       -1.47441       -0.41053
H         -0.55334       -1.61818       -0.64660
S          2.69081       -1.10731       -0.29406
O          3.27686        0.23112       -0.08440
O          1.82319       -1.23373       -1.45948
O          1.97842       -1.58584        1.00114
H          1.17440       -0.90995        1.26148
C          4.01579       -2.28221       -0.39519
H          4.60103       -2.02719       -1.27906
H          4.61779       -2.20348        0.50933
H          3.57863       -3.27543       -0.49441
N          1.32120        2.24986       -0.24263
C          1.32449        3.08967        0.97403
C          1.56763        2.97551       -1.50328
H          2.03401        1.50396       -0.13892
H          0.54569        3.84829        0.88415
H          1.10925        2.44146        1.82384
H          2.30134        3.56222        1.09008
H          0.78223        3.71866       -1.64864
H          2.54197        3.46500       -1.45927
H          1.55184        2.25677       -2.32257
N         -4.45154       -0.99630       -1.04993
C         -4.24756        0.29482       -1.69341
C         -5.08819       -0.87652        0.25610
H         -5.01019       -1.59258       -1.65038
H         -3.54877        0.88949       -1.09693
H         -3.79919        0.14738       -2.68011
H         -5.17940        0.87519       -1.81212
H         -4.42254       -0.32884        0.93043
H         -6.05732       -0.34884        0.22221
H         -5.24936       -1.87220        0.67930
