32
2msa1a1dma_58.log	Energy: -953967.3791865
S          2.65120        0.19976       -0.06295
O          3.79206        1.00735       -0.44478
O          2.71085       -1.25291       -0.14902
O          1.40561        0.71353       -0.91661
H          0.73765       -0.03264       -1.09245
C          2.17823        0.63582        1.59896
H          2.97342        0.28529        2.25830
H          2.09293        1.72144        1.65779
H          1.23008        0.14136        1.81944
S         -1.04714       -1.53791       -0.01419
O         -0.49822       -0.98126       -1.29364
O         -2.47138       -1.89634       -0.11412
O         -0.75915       -0.57982        1.10164
H         -4.54529        0.61938        1.10947
C         -0.12639       -3.01772        0.33464
H         -0.47241       -3.41381        1.28961
H         -0.32285       -3.72627       -0.47038
H          0.93174       -2.75139        0.36721
N         -4.06104        0.60373        0.21701
H         -2.57080        1.52874        0.15015
H         -4.76028        0.74413       -0.50553
H         -3.67846       -0.34266        0.09809
N         -1.56140        1.84176        0.03182
C         -1.23824        2.96318        0.93127
C         -1.32373        2.11931       -1.40193
H         -1.03250        0.99679        0.34184
H         -1.86111        3.82421        0.68224
H         -1.42594        2.65593        1.96061
H         -0.18578        3.22520        0.81092
H         -1.97891        2.93342       -1.71786
H         -0.27708        2.38572       -1.55013
H         -1.53973        1.20928       -1.96215
