35
2msa1a1tma_27.log	Energy: -978625.7726184
S         -1.34806        1.65136       -0.01654
O         -1.27547        1.27420       -1.43703
O         -0.01657        1.84745        0.62652
O         -2.19546        0.70774        0.77937
C         -2.15928        3.23423        0.09592
H         -1.56164        3.95535       -0.46192
H         -3.15357        3.13755       -0.34031
H         -2.22133        3.51307        1.14768
S          2.71526       -0.21742       -0.17313
O          2.36030       -0.91748       -1.40029
O          2.25756       -0.80204        1.08638
O          2.30333        1.29959       -0.25172
H          1.34627        1.47631        0.06112
C          4.48081       -0.02048       -0.11718
H          4.79480        0.51099       -1.01523
H          4.73909        0.53619        0.78296
H          4.91084       -1.02211       -0.09236
N         -0.48413       -1.14552        2.55808
H         -0.46931       -1.29294        3.56189
H         -1.01147       -0.29286        2.37855
H          0.47373       -0.95408        2.26787
N         -1.95984       -1.75497       -0.34889
C         -2.41871       -2.83991        0.55073
H         -1.78424       -2.81150        1.43974
H         -3.45778       -2.65212        0.82554
H         -2.33726       -3.79512        0.02655
C         -2.83051       -1.58329       -1.53651
H         -3.85431       -1.41366       -1.20063
H         -2.47620       -0.71215       -2.08922
H         -2.78038       -2.48543       -2.15043
C         -0.53497       -1.93179       -0.74093
H         -0.23073       -1.08115       -1.35017
H          0.06855       -1.97563        0.16495
H         -0.43685       -2.85853       -1.31055
H         -2.01924       -0.84995        0.18621
