40
2msa1dma1eda_112.log	Energy: -1038027.1163800
S          2.40130        0.47840       -0.62947
O          1.49768        1.50985       -1.18790
O          2.24397       -0.85821       -1.23752
O          2.32830        0.40830        0.86895
H         -0.04314       -1.49807        0.98317
C          4.06341        1.02176       -0.99759
H          4.15848        1.10325       -2.08068
H          4.22179        1.99124       -0.52454
H          4.76227        0.28280       -0.60511
S         -2.13985       -1.08082       -0.80450
O         -2.70192       -2.42282       -0.91838
O         -1.42738       -0.82425        0.49624
O         -3.12884        0.02801       -1.02933
H         -2.82052        1.34069       -0.31803
C         -0.91074       -0.87620       -2.08009
H         -0.14167       -1.63936       -1.95933
H         -1.41369       -0.98463       -3.04161
H         -0.44789        0.10743       -1.97864
N          0.85505       -1.80310        1.44358
C          1.32432       -3.05844        0.82349
C          0.61764       -1.88797        2.89503
H          1.52731       -1.01970        1.24206
H          0.53863       -3.81231        0.89907
H          1.55993       -2.84522       -0.21905
H          2.22478       -3.40105        1.33698
H         -0.14209       -2.64550        3.09479
H          1.54786       -2.14714        3.40385
H          0.26587       -0.91788        3.24747
H         -2.43565        2.97827        2.15929
H         -2.44750        1.19673        1.97690
H         -0.09791        2.22907        2.32635
H         -0.28530        1.19710        0.90804
H          0.08281        4.05733        0.89043
H          0.52074        2.88549       -0.19835
H         -3.62936        2.72630        0.21564
H         -2.03859        2.89967       -0.31319
C         -2.10669        2.13719        1.54207
C         -0.58460        2.14968        1.34790
N         -2.71214        2.28909        0.19207
N         -0.22361        3.21559        0.41815
