38
2msa1ma1tma_34.log	Energy: -1003282.3010859
S         -2.51384        1.02045       -0.02748
O         -1.63062        2.13724        0.30084
O         -2.81665        0.07292        1.03981
O         -1.97951        0.25973       -1.29982
H         -1.10742       -0.24594       -1.06068
C         -4.02985        1.66263       -0.69590
H         -4.50983        2.22838        0.10322
H         -3.78957        2.31057       -1.53828
H         -4.65457        0.82545       -1.00550
S          0.30730       -2.29018       -0.15141
O          0.98079       -3.11613       -1.14734
O          0.14414       -0.84951       -0.59006
O          0.93531       -2.29784        1.20337
H          1.44643       -0.81225        1.60065
C         -1.34940       -2.91271        0.07127
H         -1.83056       -2.95456       -0.90665
H         -1.26783       -3.91250        0.49849
H         -1.88935       -2.23873        0.73859
N          1.79732        0.15292        1.85394
H          2.55099        0.03499        2.52717
C          0.70358        0.98590        2.40334
H          1.10544        1.94464        2.73532
H         -0.03372        1.15729        1.61969
H          0.23050        0.47042        3.23929
H          2.19162        0.60198        0.95596
N          2.74390        1.35843       -0.44519
C          3.21122        0.29536       -1.33903
H          4.02884       -0.25314       -0.86176
H          2.39235       -0.39914       -1.53604
H          3.57730        0.70586       -2.29386
C          1.60308        2.06744       -1.03143
H          0.80862        1.35263       -1.24474
H          1.21786        2.80522       -0.32253
H          1.88709        2.58354       -1.96277
C          3.82327        2.28439       -0.11790
H          3.45982        3.04646        0.57836
H          4.64875        1.74290        0.35472
H          4.21438        2.79296       -1.01409
