41
2msa1dma1tma_67.log	Energy: -1027942.1709095
S         -0.17710        2.24740        0.52568
O         -1.23896        3.23194        0.32570
O          0.86300        2.29093       -0.56890
O         -0.66936        0.84381        0.68795
H         -1.22911        0.06487       -0.64103
C          0.69699        2.61857        2.02854
H          1.13047        3.61358        1.92542
H         -0.01916        2.59129        2.85007
H          1.47062        1.85848        2.14854
S          2.22932       -0.83846       -0.11328
O          1.28339       -1.94809       -0.02056
O          2.53406       -0.08317        1.09448
O          1.77724        0.12534       -1.26821
H          1.42020        1.07009       -0.91490
C          3.74858       -1.47855       -0.78502
H          4.12850       -2.21061       -0.07155
H          3.53517       -1.95152       -1.74334
H          4.44926       -0.65230       -0.90189
N         -1.55911       -2.02552        1.19087
C         -1.33058       -3.44999        1.37892
C         -2.31757       -1.42971        2.28045
H         -0.65777       -1.55992        1.11441
H         -2.28195       -3.99075        1.30787
H         -0.65992       -3.81803        0.59789
H         -0.87715       -3.69141        2.35521
H         -3.33199       -1.84757        2.29561
H         -1.86823       -1.61008        3.27184
H         -2.38314       -0.35029        2.12498
N         -1.74944       -0.19132       -1.52313
C         -1.20533       -1.46411       -2.05451
H         -0.14133       -1.32974       -2.24451
H         -1.34325       -2.22861       -1.29099
H         -1.73881       -1.71761       -2.97421
C         -3.17000       -0.32251       -1.11730
H         -3.22217       -1.12676       -0.38194
H         -3.48710        0.61823       -0.66544
H         -3.77563       -0.54559       -1.99905
C         -1.54256        0.93840       -2.46335
H         -1.88819        1.85886       -1.99021
H         -0.47688        1.02737       -2.67299
H         -2.10015        0.74409       -3.38230
