34
2msa1a1eda_101.log	Energy: -988705.9587747
S          3.10938        0.35220       -0.15091
O          3.33957       -0.99671       -0.68024
O          2.22521        0.34234        1.07970
O          2.60752        1.34906       -1.12496
H          0.56853        1.99948       -0.64558
C          4.69055        0.95395        0.42697
H          5.06653        0.25711        1.17636
H          5.36521        0.99540       -0.42871
H          4.55462        1.94630        0.85743
S         -2.88410        0.73854        0.01327
O         -2.02282        0.42249       -1.14325
O         -2.28110        1.76194        0.91051
O         -3.31181       -0.48807        0.75435
H         -2.33294       -1.75176        0.65627
C         -4.39499        1.45518       -0.60465
H         -4.14076        2.36402       -1.15034
H         -4.87122        0.73022       -1.26483
H         -5.03702        1.68384        0.24610
N          0.36447        2.14735        0.34703
H          0.64716        3.09127        0.59464
H          0.99839        1.45626        0.83211
H         -0.65110        1.99884        0.56295
H         -0.81710       -3.67588       -1.03292
H         -1.61922       -2.14819       -1.52152
H          0.97946       -1.99973       -1.34207
H          0.05045       -0.80583       -0.44868
H          1.52733       -3.03576        0.64331
H          1.36467       -1.51546        1.18219
H         -2.36821       -3.43512        0.64989
H         -0.98008       -2.65687        1.24160
C         -1.01174       -2.63567       -0.75867
C          0.29017       -1.87022       -0.50333
N         -1.75275       -2.63473        0.53599
N          0.84461       -2.29797        0.78317
