35
2msa1ma1dma_306.log	Energy: -978613.4216758
S         -1.24303        1.60563       -0.26570
O         -1.94284        0.56624       -1.09384
O         -0.29197        2.42337       -1.02853
O         -0.66164        0.97552        0.95328
C         -2.53819        2.69963        0.29989
H         -3.00792        3.14957       -0.57511
H         -3.26127        2.11671        0.87135
H         -2.08272        3.46701        0.92639
S          3.03598       -0.16854        0.20587
O          3.44446       -0.71918        1.48738
O          2.15496       -0.94816       -0.65595
O          4.38702        0.08830       -0.65635
H          5.13961       -0.19686       -0.11849
C          2.39806        1.46682        0.38651
H          1.44811        1.37542        0.92392
H          3.13162        2.05336        0.93920
H          2.19596        1.87782       -0.60320
N         -3.74907       -1.52703       -0.02592
H         -3.52685       -0.80119       -0.70427
C         -3.88056       -0.90874        1.29415
H         -4.69908       -0.17799        1.37300
H         -4.04366       -1.68113        2.05271
H         -2.94631       -0.39340        1.53780
H         -4.62409       -1.95713       -0.30560
N         -0.56880       -1.71403       -0.45658
C         -0.85247       -2.73590       -1.48359
C         -0.66507       -2.20903        0.93389
H          0.37826       -1.33210       -0.59432
H         -1.86952       -3.09685       -1.32561
H         -0.76783       -2.27256       -2.46674
H         -0.13243       -3.55084       -1.39297
H         -1.66227       -2.62641        1.07418
H          0.10408       -2.96648        1.09538
H         -0.51177       -1.35816        1.59757
H         -1.21456       -0.90026       -0.60328
