37
2msa1ma1eda_496.log	Energy: -1013352.0492120
S         -1.70126        0.79087       -0.16512
O         -1.77054       -0.57321        0.45365
O         -0.85179        1.72350        0.61220
O         -3.08059        1.32820       -0.38840
H         -4.20353        0.32628        0.37958
C         -0.94273        0.59968       -1.75736
H          0.02782        0.11238       -1.60833
H         -1.59734       -0.01671       -2.37429
H         -0.82375        1.59321       -2.19277
S          2.15289       -1.86218       -0.14611
O          3.29926       -2.68400       -0.52683
O          1.80976       -0.76131       -1.08249
O          2.25399       -1.32015        1.26234
H          1.92269        0.13056        1.36325
C          0.71776       -2.93106       -0.10686
H          0.89741       -3.71344        0.63159
H         -0.15119       -2.32674        0.16122
H          0.60068       -3.36713       -1.10017
N         -4.38478       -0.60898        0.83480
H         -3.38129       -0.91434        0.92331
C         -5.16814       -1.50874       -0.03843
H         -5.25223       -2.49151        0.42460
H         -6.15847       -1.08597       -0.20518
H         -4.64246       -1.59496       -0.98879
H         -4.80116       -0.48379        1.75429
H          2.96319        2.92252        1.46170
H          3.72656        1.41759        0.89571
H          3.33905        2.75826       -1.04713
H          2.17451        1.44505       -1.09142
H          0.47950        3.01539       -0.36308
H          1.59023        4.23466       -0.30977
H          1.75679        1.32195        2.54481
H          0.79631        1.41952        1.19735
C          2.80892        2.01171        0.87441
C          2.43462        2.36954       -0.56785
N          1.75015        1.19422        1.53581
N          1.36709        3.34149       -0.73405
