40
2msa1dma1eda_480.log	Energy: -1038010.5728709
S          0.25599       -1.83475        0.24566
O          0.43251       -0.83362       -0.85916
O         -0.30601       -1.24601        1.46870
O          1.55058       -2.55738        0.46941
H          2.80990       -1.66490        0.54092
C         -0.89108       -3.04942       -0.35759
H         -1.83147       -2.52302       -0.56407
H         -0.47367       -3.49106       -1.26268
H         -1.01785       -3.80360        0.41991
S         -0.63182        2.38882        0.07991
O         -1.32352        3.59253       -0.33260
O          0.82543        2.40856        0.20129
O         -1.04736        1.24379       -0.93438
H         -0.43310        0.43099       -0.88249
C         -1.30531        1.81830        1.62353
H         -1.03155        2.55154        2.38312
H         -2.38914        1.76433        1.51581
H         -0.88135        0.83447        1.83826
N         -3.39684       -0.84646       -0.49785
C         -3.69439       -0.93011        0.92284
C         -4.58928       -0.78099       -1.32552
H         -2.80717       -0.03991       -0.68095
H         -4.22778       -1.86576        1.12771
H         -2.75926       -0.94639        1.48895
H         -4.32765       -0.10200        1.29028
H         -5.14152       -1.72444       -1.24616
H         -5.27716        0.03500       -1.04233
H         -4.30567       -0.64370       -2.37218
H          5.11088       -0.54996       -0.98730
H          3.64504       -1.36829       -1.59368
H          3.65560        1.19067       -1.93997
H          2.25482        0.55449       -1.06614
H          4.40991        2.12064        0.07313
H          2.79965        2.07071        0.42541
H          4.46831       -1.75101        0.86561
H          3.69971       -0.26468        1.07167
C          4.02755       -0.64429       -0.87292
C          3.33313        0.71724       -1.00630
N          3.74519       -1.13532        0.50342
N          3.61265        1.50655        0.19125
