34
2msa1a1eda_225.log	Energy: -988699.0187961
S         -2.72277       -0.42710       -0.16086
O         -1.80137       -0.61750       -1.29545
O         -3.06179        0.99170        0.10600
O         -2.22818       -1.10536        1.09023
H         -1.21116       -0.18314        1.82141
C         -4.24626       -1.26069       -0.56355
H         -4.64653       -0.80484       -1.46940
H         -4.02418       -2.31488       -0.72943
H         -4.93808       -1.13626        0.26939
S          2.46890       -1.24716       -0.12385
O          3.43678       -2.16514        0.44627
O          2.83706       -0.44698       -1.28968
O          2.00482       -0.22335        1.00938
H          2.14166        0.80875        0.68254
C          0.96844       -2.13548       -0.46457
H          1.21705       -2.87986       -1.22240
H          0.64438       -2.62760        0.45293
H          0.19428       -1.45675       -0.83145
N         -0.44061        0.46778        2.20093
H          0.46942        0.01641        2.03337
H         -0.58233        0.65730        3.18837
H         -0.46069        1.35702        1.63754
H          1.64795        3.62249       -1.11433
H          2.13904        2.02479       -1.72086
H         -0.30544        2.38014       -1.88895
H          0.10895        0.97588       -0.93318
H         -0.63584        3.56867        0.23444
H         -1.57584        2.23064        0.12660
H          3.24725        2.43389        0.30369
H          1.85432        2.76352        1.10353
C          1.59454        2.54131       -0.92772
C          0.14946        2.06838       -0.94056
N          2.25691        2.20939        0.35142
N         -0.60457        2.55198        0.22708
