40
2msa1dma1eda_281.log	Energy: -1038019.0724553
S         -0.71705       -1.94125       -0.52182
O          0.11460       -1.95382        0.69220
O          0.02001       -1.42687       -1.72178
O         -2.00666       -1.22022       -0.32954
C         -1.14052       -3.62594       -0.91894
H         -1.69578       -4.04302       -0.07873
H         -1.74829       -3.62241       -1.82385
H         -0.21160       -4.17362       -1.07862
S          2.50509        0.55676       -0.27791
O          2.99768       -0.12997        0.90246
O          1.30171        1.38817       -0.13198
O          2.32007       -0.42292       -1.48864
H          1.37563       -0.84204       -1.53567
C          3.80542        1.57873       -0.93028
H          4.05192        2.30887       -0.15900
H          4.66365        0.94216       -1.14477
H          3.44397        2.06922       -1.83325
N         -2.41284        2.46959       -0.97648
C         -3.70501        1.80140       -1.13789
C         -1.44138        2.04070       -1.98941
H         -2.53949        3.47481       -1.03483
H         -3.56404        0.72563       -0.99284
H         -4.40859        2.16794       -0.38504
H         -4.14412        1.95599       -2.13496
H         -1.26481        0.96568       -1.88679
H         -1.79050        2.23520       -3.01420
H         -0.48925        2.54941       -1.82495
H         -1.33705        1.98196        2.97605
H         -2.67923        0.86180        2.61594
H         -1.07171       -0.05886        4.31602
H         -1.17154       -1.07359        2.86792
H          1.14348       -0.06977        3.87993
H          0.96695       -0.51279        2.31268
H         -1.68409        1.78394        0.53666
H         -0.20531        1.12362        0.99439
C         -1.59823        1.01226        2.54590
C         -0.82591       -0.10397        3.25020
N         -1.22784        1.03252        1.11520
N          0.60062        0.09260        3.04321
H         -1.51385        0.14480        0.65090
