34
2msa1a1eda_173.log	Energy: -988703.0174433
S          2.50161       -0.01966       -0.19960
O          2.28253        0.22884        1.25683
O          1.64196        0.80722       -1.06475
O          2.42815       -1.48172       -0.50968
H          1.56220       -2.28183        0.77017
C          4.18809        0.45442       -0.54526
H          4.29818        1.51539       -0.31940
H          4.85072       -0.14400        0.07998
H          4.37961        0.26539       -1.60173
S         -2.08471       -1.39663       -0.30899
O         -2.90223       -2.60358       -0.33257
O         -1.32342       -1.19761        0.98031
O         -2.82427       -0.12461       -0.60649
H         -2.42773        0.95745        0.42664
C         -0.85103       -1.53554       -1.58987
H         -1.37716       -1.60516       -2.54262
H         -0.19594       -0.66196       -1.56207
H         -0.26891       -2.44170       -1.41811
N          1.02683       -2.19200        1.66520
H          1.46849       -1.36043        2.08486
H          1.08455       -3.01456        2.25598
H          0.02733       -1.93046        1.42240
H         -0.24033        2.56128        1.70689
H         -0.07434        1.08145        0.73954
H          0.39569        3.10860       -0.64412
H         -0.99495        2.21463       -1.23840
H         -1.08711        4.76004        0.19412
H         -1.92359        4.28959       -1.12606
H         -2.16930        1.21130        2.06493
H         -2.60548        2.52549        1.09527
C         -0.64415        2.00068        0.85911
C         -0.63763        2.83553       -0.41195
N         -2.06161        1.65749        1.15726
N         -1.55463        3.97042       -0.23849
