40
2msa1dma1eda_265.log	Energy: -1038019.2089763
S          1.10121        2.08810       -0.48028
O          0.55736        2.22798       -1.82967
O          2.33135        1.28376       -0.34865
O          0.05900        1.55255        0.50196
C          1.47203        3.72337        0.13230
H          2.22913        4.15604       -0.52243
H          0.55656        4.31466        0.10167
H          1.84613        3.63588        1.15228
S         -2.89987       -0.06795        0.37638
O         -2.16182       -0.67193        1.48528
O         -2.92502       -0.82343       -0.87538
O         -2.41120        1.39924        0.13286
H         -1.37877        1.50294        0.23417
C         -4.57477        0.25049        0.87373
H         -5.04622       -0.71819        1.04184
H         -4.55777        0.84012        1.78961
H         -5.07340        0.78680        0.06664
N          3.21790       -1.82414        1.00422
C          3.57137       -0.78598        1.97686
C          3.92743       -1.65061       -0.26638
H          3.43664       -2.73728        1.39084
H          3.25390        0.18133        1.57690
H          3.04644       -0.97054        2.91806
H          4.65231       -0.74485        2.17677
H          3.64681       -0.68289       -0.69138
H          5.02071       -1.67537       -0.14675
H          3.63360       -2.44180       -0.96249
H         -0.43272       -0.67694       -1.40956
H          1.31257       -0.90525       -1.55384
H         -0.01462       -2.78467       -2.58169
H          1.03768       -3.36120       -1.28037
H         -1.82038       -2.76578       -0.90640
H         -1.11430       -4.25800       -0.86275
H          0.41891       -0.21475        0.65870
H         -0.21247       -1.75833        0.80441
C          0.40472       -1.30727       -1.10319
C          0.14819       -2.75571       -1.49479
N          0.53649       -1.20418        0.37344
N         -0.96049       -3.27084       -0.69980
H          1.48930       -1.54129        0.68081
