34
2msa1a1eda_113.log	Energy: -988704.9846792
S          2.21317       -0.90666       -0.33706
O          2.32372       -1.50829        0.99890
O          2.96432        0.34646       -0.52889
O          0.76020       -0.69012       -0.73743
C          2.83198       -2.09116       -1.51859
H          2.70498       -1.67544       -2.51809
H          3.88745       -2.25541       -1.29985
H          2.26964       -3.01836       -1.40574
S         -2.39829       -0.83739        0.20773
O         -2.81620       -0.02737       -0.93485
O         -1.89393       -0.11449        1.37340
O         -1.36963       -1.93944       -0.23816
H         -0.44692       -1.51902       -0.42120
C         -3.74567       -1.88419        0.69768
H         -3.40530       -2.52970        1.50658
H         -4.54671       -1.22608        1.03537
H         -4.06167       -2.46590       -0.16781
N          2.53470        1.27314        2.35365
H          2.45780        0.25997        2.44813
H          2.85166        1.65870        3.23632
H          3.26174        1.41117        1.65471
H          0.68173        3.67527        0.09468
H          1.51276        2.39569       -0.83963
H         -0.43033        3.40812       -2.12363
H         -0.62638        1.68059       -1.82640
H         -2.27504        3.77485       -0.81852
H         -2.51937        2.13859       -0.79021
H          1.04074        1.69722        1.45830
H         -0.64308        1.87653        1.08828
C          0.57370        2.68942       -0.36544
C         -0.60251        2.66169       -1.34004
N          0.29604        1.71235        0.71018
N         -1.85058        2.88091       -0.61271
H          0.29424        0.76466        0.29455
