35
2msa1a1tma_54.log	Energy: -978619.1711309
S         -2.52129       -0.53595        0.63049
O         -2.03420       -1.84642        1.02455
O         -3.96005       -0.32662        0.47411
O         -1.81180       -0.13811       -0.73762
H         -2.50461        0.22958       -1.40681
C         -1.86816        0.67219        1.75559
H         -2.23010        0.40845        2.75028
H         -0.77425        0.64303        1.70727
H         -2.24452        1.65217        1.46035
S          1.78736        1.63991        0.09579
O          2.86172        2.57420        0.42401
O          1.30635        0.79796        1.22383
O          2.10160        0.76069       -1.09427
H          2.12307       -0.68111       -0.66040
C          0.38177        2.61052       -0.43568
H          0.09127        3.26122        0.39054
H          0.68740        3.20621       -1.29642
H         -0.42333        1.92394       -0.70118
N         -3.72658        0.73604       -2.31657
H         -4.49419        0.55970       -1.67060
H         -3.88415        0.18791       -3.15602
H         -3.73911        1.71749       -2.57391
N          2.21462       -1.71936       -0.36005
C          0.88547       -2.15926        0.12729
H          0.61786       -1.54630        0.98510
H          0.14608       -2.00002       -0.65688
H          0.92574       -3.21595        0.40324
C          2.64773       -2.46887       -1.55614
H          1.87856       -2.37900       -2.32394
H          3.57836       -2.03750       -1.92714
H          2.79646       -3.52136       -1.30118
C          3.22943       -1.74497        0.71862
H          4.17165       -1.36387        0.32243
H          2.88332       -1.08687        1.51647
H          3.35461       -2.76916        1.07971
