34
2msa1a1eda_286.log	Energy: -988693.1170821
S         -2.04775       -1.35817        0.18394
O         -2.43050       -2.11940        1.36494
O         -0.92999       -0.36324        0.44590
O         -3.15969       -0.62801       -0.49766
H         -2.97321        0.94626       -0.38177
C         -1.39360       -2.49749       -1.02105
H         -0.53670       -3.00690       -0.57956
H         -2.18418       -3.20752       -1.26522
H         -1.07802       -1.93884       -1.90149
S          2.25754       -0.86199       -0.17029
O          2.33680        0.58611       -0.37061
O          1.83732       -1.66877       -1.30790
O          1.37051       -1.17257        1.09530
H          0.39805       -0.88275        0.91352
C          3.82031       -1.45274        0.43286
H          4.55088       -1.27583       -0.35703
H          4.07909       -0.89722        1.33367
H          3.72530       -2.51825        0.63973
N         -2.70973        1.97263       -0.26436
H         -2.63501        2.16190        0.73321
H         -3.41704        2.57876       -0.67021
H         -1.73128        2.11943       -0.73413
H          1.68710        3.04783       -0.85369
H          0.40165        4.19579       -1.28108
H          0.94227        4.26909        1.13087
H         -0.73262        3.85458        0.84245
H         -0.19516        1.55610        1.34507
H          1.37015        1.92877        1.54094
H         -0.09762        2.17236       -2.31936
H          0.17836        1.29356       -0.98708
C          0.61971        3.26979       -0.73663
C          0.29376        3.47365        0.74705
N         -0.20026        2.18621       -1.30860
N          0.43206        2.31165        1.61004
