42
2msa2eda_599.log	Energy: -1072737.9599304
S         -2.90481       -0.76923        0.46262
O         -3.31596       -2.06221        0.97990
O         -2.61211       -0.66017       -0.96710
O         -1.65343       -0.21311        1.27555
H         -0.80989       -0.67709        0.97211
C         -4.10076        0.46504        0.90891
H         -5.04880        0.13127        0.48507
H         -4.16277        0.50740        1.99609
H         -3.80344        1.42081        0.47021
S          1.20786       -1.53677       -0.77619
O          1.45032       -0.19968       -1.42580
O          0.55726       -1.36447        0.56170
O          2.45158       -2.31576       -0.68414
H          3.94526       -0.48124        0.22112
C          0.04923       -2.39545       -1.81069
H         -0.87207       -1.81128       -1.85470
H          0.50312       -2.50971       -2.79510
H         -0.13511       -3.36777       -1.35268
H         -1.36558        4.10802       -0.00365
H         -1.72998        2.68801        0.97452
H          0.67592        2.86420        0.67737
H          0.04512        1.40168       -0.08923
H          1.23659        3.64662       -1.45975
H          1.10843        2.04063       -1.89310
H         -2.01765        2.97585       -1.92285
H         -2.20429        1.55483       -1.17434
C         -1.36174        3.01112       -0.00802
C          0.07066        2.49250       -0.16743
N         -2.29071        2.56139       -1.03691
N          0.64120        2.82996       -1.46574
H          1.61451        0.70288        1.43134
H          2.57815        1.46459        2.69916
H          3.06183        2.30850        0.31087
H          4.49749        1.71463        1.19618
H          2.88222        0.23940       -0.85094
H          4.54566        0.62763       -0.89392
H          3.51734       -0.60071        3.09263
H          2.42010       -1.24145        2.03055
C          2.62513        0.79455        1.83480
C          3.52964        1.43573        0.77177
N          3.13594       -0.53200        2.15910
N          3.76710        0.41072       -0.27743
