30
2msa1eda_161.log	Energy: -953181.0527311
S         -1.52437       -1.56351        0.03584
O         -2.78957       -0.86570        0.03150
O         -0.56904       -1.30503        1.12165
O         -0.80791       -1.30140       -1.35042
H          0.17501       -1.16386       -1.24209
C         -1.82643       -3.31309       -0.00539
H         -2.34345       -3.57213        0.91912
H         -2.45293       -3.52553       -0.87160
H         -0.86884       -3.82874       -0.07449
S          2.42412        0.02737       -0.09529
O          2.45923        1.39830       -0.55169
O          1.78036       -0.98058       -0.95619
O          1.77488       -0.07350        1.34774
H          0.86350       -0.47100        1.29578
C          4.07344       -0.51846        0.25783
H          4.62882       -0.47284       -0.67938
H          4.50011        0.16575        0.99136
H          4.02996       -1.53646        0.64261
H         -0.55005        1.25568       -0.12740
H         -0.03161        2.21285        1.26928
H         -2.37226        1.65308        1.51756
H         -2.22843        3.39952        1.22078
H         -3.10218        1.37865       -0.69481
H         -3.87807        2.74299       -0.24179
H          0.70868        3.16765       -0.83970
H         -0.86416        3.42355       -1.25780
C         -0.65195        2.24003        0.36647
C         -2.11231        2.41133        0.76336
N         -0.22103        3.34464       -0.47494
N         -2.96327        2.34872       -0.42660
