40
2msa1dma1eda_15.log	Energy: -1038038.5879057
S         -2.99265        0.30374        0.17598
O         -2.50021        1.25291        1.18634
O         -3.00124       -1.11961        0.62022
O         -2.27311        0.45538       -1.13186
C         -4.70029        0.70057       -0.15369
H         -5.25469        0.58936        0.77840
H         -4.74887        1.72966       -0.51011
H         -5.07376        0.01029       -0.90998
S          2.58537       -0.77040       -0.01679
O          2.99223        0.34389       -0.89328
O          2.50305       -2.09620       -0.64796
O          1.28829       -0.43345        0.69586
C          3.80451       -0.88256        1.28239
H          4.75979       -1.12944        0.81829
H          3.86214        0.08075        1.78957
H          3.50010       -1.66590        1.97645
N         -0.63183       -2.29998        0.00234
C         -0.63033       -2.39663       -1.47581
C         -0.27461       -3.55781        0.68726
H          0.06266       -1.57469        0.28718
H         -1.29882       -3.20496       -1.77738
H         -1.00599       -1.45146       -1.87058
H          0.39042       -2.58712       -1.80973
H         -0.98528       -4.33653        0.40618
H          0.73797       -3.83651        0.39079
H         -0.31664       -3.39380        1.76432
H         -1.56793       -1.94273        0.31346
H         -0.33929        3.72501       -0.32744
H         -0.47758        2.69599        1.12049
H          1.59666        4.21950        1.07591
H          1.96354        2.50539        1.27751
H          3.00783        4.08191       -0.67908
H          2.89477        2.43958       -0.79518
H         -0.84925        1.39847       -0.89421
H          0.69202        1.87786       -1.44247
C          0.12615        2.91472        0.23824
C          1.57909        3.25095        0.56824
N          0.11096        1.70475       -0.61783
N          2.36760        3.30008       -0.66137
H          0.54028        0.90309       -0.10570
