29
2msa1a1ma_10.log	Energy: -929315.7542412
S         -2.48930       -0.28486       -0.16978
O         -3.72507       -1.00289        0.11571
O         -1.48392       -0.34308        0.96617
O         -2.63940        1.13503       -0.59203
H         -1.20670        1.97557       -0.14802
C         -1.67249       -1.11147       -1.53072
H         -1.53766       -2.16275       -1.27182
H         -2.31657       -1.02359       -2.40638
H         -0.70526       -0.63677       -1.70798
S          2.22381       -0.26565       -0.24915
O          1.58959        0.68489       -1.20193
O          1.85931       -1.68553       -0.51100
O          1.98293        0.11999        1.16790
H          0.89807       -1.50362        2.23543
C          3.97883       -0.15010       -0.53937
H          4.16647       -0.42016       -1.57868
H          4.28957        0.87691       -0.34710
H          4.48489       -0.83993        0.13601
N          0.28921       -2.09163        1.66175
H          0.83747       -2.25008        0.78655
H         -0.55732       -1.48538        1.39294
H          0.02595       -2.94926        2.13600
N         -0.25434        2.09776        0.27183
H         -0.26016        1.45066        1.06635
C          0.07693        3.48179        0.65034
H          1.06518        3.50043        1.10993
H          0.07655        4.10522       -0.24358
H         -0.66701        3.85447        1.35442
H          0.44322        1.68490       -0.38629
