32
2msa1a1dma_74.log	Energy: -953966.3811013
S          2.30413       -0.52486       -0.17015
O          3.76360       -0.53730       -0.14412
O          1.67618        0.59623        0.59677
O          1.67341       -1.83012        0.25278
H          0.86458       -1.59515        1.55346
C          1.79534       -0.31188       -1.86911
H          2.26425        0.59774       -2.24843
H          2.15213       -1.17428       -2.43323
H          0.70635       -0.23819       -1.90177
S         -2.23638       -0.61745       -0.30450
O         -3.65292       -0.58581       -0.64753
O         -1.96446       -0.36389        1.15169
O         -1.38485        0.30103       -1.13958
H         -0.85518        1.56594       -0.41844
C         -1.60681       -2.24988       -0.65576
H         -1.79385       -2.45260       -1.71083
H         -0.53359       -2.27202       -0.44789
H         -2.15296       -2.96172       -0.03535
N          0.28417       -1.17315        2.35634
H          0.81225       -0.35234        2.64829
H          0.14586       -1.81727        3.12856
H         -0.63370       -0.85794        1.93610
N         -0.68123        2.56558       -0.06383
C          0.49364        3.14114       -0.76096
C         -0.57092        2.57030        1.41433
H         -1.52580        3.06628       -0.34031
H          1.36400        2.55546       -0.46145
H          0.33339        3.05598       -1.83623
H          0.61258        4.18904       -0.47893
H          0.35722        2.05918        1.66679
H         -0.55509        3.60035        1.77602
H         -1.42227        2.02223        1.81949
