38
2msa1ma1tma_73.log	Energy: -1003278.0929195
S         -3.23633       -0.65156       -0.42553
O         -4.65607       -0.92724       -0.26920
O         -2.58613       -0.13728        0.84391
O         -2.89537        0.28709       -1.54189
H         -2.03931        1.51270       -1.05200
C         -2.40040       -2.18068       -0.80387
H         -2.59404       -2.88073        0.00981
H         -2.81941       -2.55947       -1.73657
H         -1.33203       -1.98277       -0.90798
S          0.72953       -0.20888        0.92955
O          0.61266        1.26049        0.83980
O          0.77484       -0.91317       -0.34835
O         -0.41083       -0.77436        1.83699
H         -1.35318       -0.55663        1.42490
C          2.15597       -0.60031        1.89534
H          3.02270       -0.28529        1.29662
H          2.08783       -0.06291        2.84076
H          2.16287       -1.67888        2.05424
N         -1.51978        2.33414       -0.60468
H         -0.68926        1.94451       -0.11525
C         -2.41494        3.01462        0.36142
H         -1.88097        3.82952        0.85046
H         -3.28873        3.39460       -0.16753
H         -2.72794        2.26847        1.09104
H         -1.19997        2.96252       -1.33797
N          4.31189       -0.00870       -0.48110
C          3.68750        1.01052       -1.31013
H          2.63294        0.76477       -1.46027
H          3.74754        1.98146       -0.80934
H          4.17187        1.09933       -2.30110
C          5.70819        0.29861       -0.22536
H          5.79204        1.27673        0.25779
H          6.13691       -0.45217        0.44551
H          6.31248        0.31845       -1.15225
C          4.15800       -1.33004       -1.07153
H          4.58148       -2.08464       -0.40079
H          3.09508       -1.54608       -1.20907
H          4.66639       -1.41515       -2.05006
