30
2msa1eda_21.log	Energy: -953206.8745135
S          1.55655        1.45856        0.01177
O          2.60038        0.87872        0.87096
O          0.30630        1.82289        0.76287
O          1.24228        0.61608       -1.17874
C          2.16447        3.00659       -0.61895
H          2.36009        3.66103        0.23044
H          3.08265        2.80544       -1.17094
H          1.40083        3.43040       -1.27069
S         -2.60451        0.00091       -0.09008
O         -2.51695       -1.33071       -0.70617
O         -2.64200        1.16302       -0.95707
O         -1.43791        0.10246        0.95649
H         -0.74260        0.89756        0.82733
C         -4.03693        0.00211        0.96374
H         -4.90745       -0.14222        0.32307
H         -3.94394       -0.81354        1.68022
H         -4.08495        0.96613        1.46967
H          0.92671       -3.78653       -0.48954
H          1.42864       -2.84026       -1.91488
H          3.30305       -3.19806       -0.18697
H          2.97536       -1.50598       -0.57958
H          2.65496       -2.72587        1.95671
H          2.50716       -1.12912        1.52513
H         -0.70809       -1.99463       -0.82064
H          0.24139       -1.71321        0.51862
C          1.28551       -2.81285       -0.83300
C          2.56422       -2.39565       -0.09255
N          0.25308       -1.80523       -0.50748
N          2.23974       -2.08413        1.29582
H          0.54320       -0.85819       -0.86545
