35
2msa1ma1dma_254.log	Energy: -978617.5677940
S         -1.91616       -1.61910        0.05950
O         -2.75334       -2.65977        0.63440
O         -1.59392       -0.50876        1.04316
O         -2.44683       -1.00036       -1.19488
H         -2.54741        0.57316       -1.11551
C         -0.34341       -2.33751       -0.38104
H          0.09434       -2.77234        0.51826
H         -0.53630       -3.11269       -1.12316
H          0.29562       -1.55514       -0.79446
S          0.81477        1.55463        0.10319
O         -0.23781        2.58625        0.02662
O          0.99192        0.76063       -1.11185
O          0.56392        0.63211        1.33628
H         -0.34991        0.10125        1.22660
C          2.34403        2.31220        0.56669
H          3.09746        1.51655        0.59299
H          2.57735        3.04501       -0.20664
H          2.20865        2.79479        1.53409
N         -2.68418        1.61742       -0.93559
H         -1.76700        2.01330       -0.64910
C         -3.68280        1.79523        0.14605
H         -3.82311        2.85683        0.34914
H         -4.62295        1.33623       -0.15876
H         -3.29882        1.28333        1.02788
H         -2.97464        2.06390       -1.80242
N          3.66610       -0.61775       -0.20861
C          3.19861       -1.60418        0.75410
C          4.88103       -1.03022       -0.89267
H          2.93102       -0.43793       -0.88700
H          3.94293       -1.71610        1.55002
H          2.26769       -1.25669        1.20895
H          3.02841       -2.60147        0.31115
H          5.70115       -1.09671       -0.16949
H          4.79280       -2.01113       -1.39140
H          5.15513       -0.28422       -1.64343
