42
2msa2eda_278.log	Energy: -1072755.4302458
S         -1.87006       -1.84107        0.25814
O         -2.08106       -1.04391       -0.99204
O         -1.59564       -0.98540        1.43087
O         -0.86130       -2.90948        0.04234
C         -3.41346       -2.67825        0.56927
H         -4.18624       -1.92190        0.70923
H         -3.64076       -3.30714       -0.29142
H         -3.29577       -3.28081        1.47005
S         -1.36206        2.31476       -0.24612
O         -1.40629        3.68666       -0.70913
O         -0.07615        1.61260       -0.23469
O         -2.39561        1.49036       -1.10595
H         -2.25639        0.48501       -1.02283
C         -2.04043        2.22223        1.39665
H         -1.37717        2.78925        2.05164
H         -3.03254        2.67337        1.37680
H         -2.07859        1.16849        1.68388
H          1.04631       -1.34653       -2.93312
H          0.19980       -0.20103       -1.86028
H          2.23732        0.77487       -3.09762
H          2.22864        0.98610       -1.35433
H          4.20156       -0.30800       -2.82625
H          4.05747       -0.27853       -1.17690
H          0.59625       -2.29065       -0.72330
H          2.26560       -2.11945       -1.07272
C          1.13845       -0.72412       -2.03959
C          2.31832        0.23763       -2.14856
N          1.38492       -1.63236       -0.89176
N          3.58151       -0.49936       -2.05112
H          1.48330       -1.09259        0.02054
H          3.70033       -0.00971        3.06022
H          4.32667        1.34717        2.11963
H          1.92937        1.58964        2.53242
H          2.27025        1.48431        0.80569
H          1.28485       -0.77909        2.40173
H          0.42765        0.09578        1.33759
H          5.20531       -0.61308        1.19846
H          3.74883       -1.32108        1.06503
C          3.68773        0.46061        2.06305
C          2.27134        0.91221        1.73689
N          4.22353       -0.42408        1.02287
N          1.37129       -0.22875        1.55088
