42
2msa2eda_174.log	Energy: -1072759.0626597
S          2.48571       -1.13385        0.32723
O          1.86159       -2.45758        0.18452
O          2.29153       -0.46315        1.61532
O          2.04437       -0.24242       -0.83836
C          4.23999       -1.33672        0.07669
H          4.61022       -1.99612        0.86228
H          4.39910       -1.78095       -0.90575
H          4.71240       -0.35666        0.14451
S          0.09965        2.50504       -0.39914
O         -0.25060        2.47961        1.01830
O         -0.75459        1.69474       -1.27950
O          1.59821        2.16705       -0.63592
H          1.80818        1.12193       -0.66357
C          0.07139        4.18962       -0.96141
H         -0.94638        4.55563       -0.82337
H          0.77145        4.76282       -0.35410
H          0.35317        4.20861       -2.01362
H         -0.81705       -2.77402       -2.46404
H         -0.13073       -3.17121       -0.86449
H         -2.52925       -3.96891       -1.23747
H         -2.30759       -2.97066        0.19704
H         -4.17260       -2.46062       -1.62032
H         -3.42639       -1.22802       -0.81595
H          0.34210       -0.90438       -1.35076
H         -1.26175       -0.57429       -1.66860
C         -0.90233       -2.60397       -1.38795
C         -2.30552       -2.95150       -0.90350
N         -0.63030       -1.17149       -1.13378
N         -3.27925       -2.01524       -1.45481
H         -0.74647       -0.92438       -0.09282
H         -2.55749        1.44523        2.17967
H         -3.94417        0.35206        2.30477
H         -1.96541       -0.61597        3.33986
H         -2.52088       -1.59883        1.97449
H         -0.35167        0.37690        1.71212
H         -0.08176       -1.19718        1.98144
H         -3.98872        1.08611        0.13810
H         -2.39180        0.95015       -0.09833
C         -2.97579        0.49579        1.81462
C         -2.05861       -0.64195        2.24488
N         -3.18583        0.50741        0.36284
N         -0.75623       -0.55070        1.57927
