34
2msa1a1eda_72.log	Energy: -988706.7487527
S          1.84201       -1.31937        0.28947
O          2.36891       -0.85523       -1.00097
O          0.54314       -2.06826        0.16648
O          1.73640       -0.24528        1.31577
C          2.99449       -2.51644        0.93311
H          3.07426       -3.32704        0.20866
H          3.95664       -2.02061        1.06260
H          2.61412       -2.88323        1.88630
S         -2.38014       -0.48747       -0.42005
O         -1.52006        0.34017       -1.26317
O         -3.62849        0.08981        0.06038
O         -1.58978       -0.96295        0.85375
H         -0.67796       -1.39889        0.60231
C         -2.70856       -1.99963       -1.29471
H         -3.23410       -1.73826       -2.21353
H         -1.74817       -2.46833       -1.51564
H         -3.32383       -2.63580       -0.65897
N         -2.20280        2.13255        1.96240
H         -2.56827        2.98436        2.37527
H         -2.08955        1.45249        2.70915
H         -2.91928        1.74978        1.34458
H          0.59842        3.84416       -0.20737
H          1.53207        3.31879        1.21769
H          2.91330        3.42275       -0.91417
H          2.90227        1.82792       -0.15265
H          2.04633        2.40513       -2.74209
H          1.90502        0.96787       -1.93469
H         -0.63355        2.11643        1.00747
H         -0.12655        1.56629       -0.49308
C          1.15311        3.01475        0.23858
C          2.28284        2.55619       -0.68854
N          0.21090        1.89071        0.42644
N          1.71607        1.96680       -1.89415
H          0.70736        1.08014        0.85608
