32
2msa2ma_217.log	Energy: -953955.5811865
S         -1.26263       -1.17717       -0.47030
O         -2.62491       -1.54805       -0.10587
O         -0.62432       -0.22768        0.52157
O         -1.11901       -0.60084       -1.84228
H         -0.37193        0.79593       -1.85278
C         -0.26208       -2.65185       -0.44445
H         -0.33402       -3.08796        0.55266
H         -0.67015       -3.33685       -1.18817
H          0.76886       -2.38529       -0.68459
S          2.66405        0.09160        0.35311
O          2.36543        1.43775       -0.17072
O          2.75502       -0.97143       -0.63803
O          1.65396       -0.27520        1.48651
H          0.67337       -0.30532        1.10991
C          4.16545        0.18340        1.29131
H          4.96042        0.43891        0.59035
H          4.05223        0.95474        2.05231
H          4.34344       -0.79306        1.74085
N          0.08510        1.75532       -1.75453
H          0.98903        1.62165       -1.26093
C         -0.79487        2.64531       -0.95921
H         -0.31308        3.61328       -0.82215
H         -1.74797        2.76130       -1.47454
H         -0.96073        2.16061        0.00209
H          0.27044        2.12897       -2.68253
N         -4.43170        0.34397        1.61336
H         -3.99833       -0.48280        1.21030
C         -3.65010        1.51672        1.24863
H         -3.54724        1.68162        0.16192
H         -4.09848        2.41451        1.68731
H         -2.64345        1.40915        1.66330
H         -5.36872        0.40688        1.23082
