42
2msa2eda_412.log	Energy: -1072751.7279713
S         -1.60637       -2.04506       -0.40426
O         -1.42194       -1.47004        0.92731
O         -1.82052       -3.47460       -0.52052
O         -0.41979       -1.57351       -1.33521
H          0.50339       -1.52663       -0.84378
C         -2.94966       -1.19456       -1.20775
H         -3.86317       -1.48894       -0.68938
H         -2.78754       -0.11853       -1.12011
H         -2.98636       -1.50969       -2.25058
S          2.18019       -0.61305        0.97029
O          3.60997       -0.36263        1.10417
O          1.83861       -1.28210       -0.34408
O          1.32105        0.59864        1.15201
H          0.39777        0.99709       -0.19329
C          1.66887       -1.75978        2.23277
H          2.23114       -2.68377        2.09555
H          1.89717       -1.31051        3.19968
H          0.59625       -1.92699        2.12102
H          0.36549        2.82605       -2.52044
H          0.89188        3.21276       -0.85676
H          2.79294        2.60161       -2.48788
H          2.75249        1.65030       -1.00496
H          2.60029        0.63726       -3.58175
H          2.31621       -0.19445       -2.18674
H         -0.99503        1.65166       -0.90596
H          0.00321        0.56208       -1.75759
C          0.84122        2.43145       -1.61838
C          2.21973        1.84650       -1.94173
N         -0.01505        1.34462       -1.09302
N          2.05743        0.62592       -2.72943
H         -3.46693        2.87344        1.59733
H         -3.55189        1.19456        1.04443
H         -1.92438        1.52630        2.91123
H         -1.22313        0.79927        1.47934
H         -0.77504        3.52328        2.40747
H          0.28856        2.38562        1.89219
H         -3.39561        2.64206       -0.83869
H         -2.05200        3.35533       -0.23574
C         -2.90649        2.07809        1.08325
C         -1.64359        1.72976        1.86819
N         -2.55674        2.47270       -0.29257
N         -0.63367        2.78187        1.72953
