40
2msa1dma1eda_514.log	Energy: -1038008.3615840
S         -2.76281       -0.17975       -0.09741
O         -2.38253        1.20289       -0.40118
O         -2.72018       -0.59388        1.29643
O         -1.94680       -1.17021       -1.00916
H         -0.93983       -1.10530       -0.80350
C         -4.38711       -0.47308       -0.75511
H         -5.07029        0.17107       -0.20094
H         -4.38546       -0.22028       -1.81475
H         -4.63386       -1.52289       -0.59922
S          1.58212       -1.79294       -0.25134
O          1.58706       -2.86674       -1.23558
O          0.47349       -0.78218       -0.46093
O          2.86156       -1.02024       -0.14330
H          2.63171        0.49266       -0.53076
C          1.28515       -2.49292        1.35939
H          0.35480       -3.05986        1.30446
H          2.12175       -3.15061        1.59733
H          1.18988       -1.67619        2.07951
N          0.62494        0.72896        2.31131
C          1.94183        1.30748        2.46433
C         -0.44053        1.58957        2.79368
H          0.44759        0.46351        1.34598
H          2.17244        1.42149        3.52948
H          2.69250        0.63880        2.02946
H          2.04568        2.31624        2.01080
H         -0.32890        1.73779        3.87394
H         -0.44276        2.58625        2.31476
H         -1.40358        1.11049        2.60795
H          2.51795        2.75141       -2.46842
H          2.39581        1.00708       -2.80028
H          0.17509        2.37553       -2.98687
H          0.12224        0.91269       -1.98990
H          0.03971        3.63720       -1.02140
H         -0.69466        2.27159       -0.46842
H          3.46875        1.95110       -0.56392
H          1.83535        1.97767       -0.15221
C          2.07464        1.80941       -2.13460
C          0.54054        1.91684       -2.06165
N          2.56196        1.53473       -0.75739
N          0.17186        2.64697       -0.85102
