38
2msa1ma1tma_102.log	Energy: -1003277.1234801
S         -1.56238        0.11485        1.10307
O         -1.71766        1.37394        0.36953
O         -0.45279        0.06410        2.05630
O         -1.46357       -1.09033        0.09794
H         -0.52863       -1.09832       -0.36767
C         -3.08911       -0.28273        1.90786
H         -3.27091        0.50544        2.63947
H         -3.86484       -0.30181        1.13523
H         -2.97345       -1.24868        2.39878
S          2.03714       -1.61420       -0.41910
O          2.73894       -2.49817       -1.33880
O          0.77101       -1.02500       -0.99435
O          2.87567       -0.49904        0.13057
H          2.25536        0.91633       -0.08624
C          1.52799       -2.56530        1.00192
H          0.88135       -3.37258        0.65559
H          2.42804       -2.97130        1.46412
H          0.99697       -1.90386        1.68877
N         -4.21926        0.00675       -1.14935
H         -3.69288        0.87472       -1.11452
C         -5.31565        0.08870       -2.10927
H         -5.00837        0.31648       -3.14100
H         -5.85697       -0.86154       -2.12174
H         -6.02133        0.86028       -1.78838
H         -3.55500       -0.71478       -1.41170
N          2.08417        1.95962       -0.24448
C          3.39450        2.48595       -0.69089
H          4.14277        2.25675        0.06797
H          3.66935        1.99133       -1.62263
H          3.32108        3.56569       -0.84096
C          1.04401        2.11808       -1.29229
H          1.32078        1.50670       -2.15113
H          0.08697        1.78006       -0.89549
H          0.98308        3.17382       -1.56980
C          1.66085        2.54189        1.05200
H          0.75545        2.03482        1.38507
H          2.45508        2.38073        1.78180
H          1.47721        3.61118        0.92216
