22
2msa1a_37.log	Energy: -869129.6926635
S          2.24965        0.17259        0.10676
O          1.70146        0.66919        1.35132
O          1.85262       -1.16453       -0.34076
O          3.86631        0.16267        0.18463
H          4.15912       -0.69605        0.52542
C          2.04995        1.36284       -1.18593
H          0.97166        1.45333       -1.33057
H          2.49237        2.30045       -0.84993
H          2.53989        0.98128       -2.08082
S         -1.66746       -0.60478       -0.15418
O         -2.99874       -0.99071       -0.57255
O         -0.94525        0.42415       -0.90129
O         -0.78568       -1.94122       -0.16572
H          0.16771       -1.71397       -0.25511
C         -1.68822       -0.14193        1.55943
H         -2.32986        0.74329        1.61247
H         -2.10712       -0.97252        2.12742
H         -0.66491        0.08261        1.86477
N         -3.77367        1.99319        0.14125
H         -4.47508        2.71488        0.26244
H         -4.22970        1.16144       -0.22290
H         -3.11962        2.30616       -0.56922
