40
2msa1dma1eda_24.log	Energy: -1038035.6620361
S          2.69864        0.85579        0.20197
O          2.90127       -0.46042        0.87116
O          2.18002        1.91546        1.08038
O          1.87065        0.69031       -1.03810
C          4.31630        1.37094       -0.34918
H          4.95714        1.46305        0.52801
H          4.70577        0.61777       -1.03435
H          4.21288        2.33291       -0.85140
S         -2.32202       -1.25179       -0.02475
O         -1.48941       -2.35751       -0.58158
O         -2.94196       -0.39012       -1.04321
O         -1.55132       -0.47789        0.99782
C         -3.64838       -2.05199        0.86306
H         -4.21605       -2.65258        0.15197
H         -3.21603       -2.68140        1.64098
H         -4.28009       -1.27890        1.30110
N          1.16564       -2.34803       -0.03900
C          1.27338       -3.46806        0.91518
C          1.77126       -2.61153       -1.36079
H          0.14926       -2.14793       -0.18463
H          0.77911       -3.17922        1.84258
H          0.78284       -4.34703        0.49450
H          2.32720       -3.67469        1.10815
H          2.82115       -2.87574       -1.22402
H          1.23064       -3.42443       -1.84780
H          1.69901       -1.69553       -1.94712
H          1.65477       -1.51882        0.36872
H         -0.99904        3.17063       -1.65338
H         -1.88095        1.61424       -1.71092
H         -3.38875        3.41345       -0.91687
H         -3.11683        2.18402        0.31825
H         -1.94904        4.87236        0.29912
H         -2.69882        4.08511        1.52329
H          0.34698        1.45728       -0.63775
H         -0.19987        2.48612        0.55272
C         -1.50429        2.40362       -1.05908
C         -2.63632        2.99774       -0.23329
N         -0.50433        1.80451       -0.14859
N         -2.09312        3.96206        0.72174
H         -0.91016        0.98243        0.35716
