34
2msa1a1eda_168.log	Energy: -988701.0057044
S          2.12677       -1.20968       -0.06374
O          0.96633       -1.08885       -1.02069
O          1.91489       -2.22466        0.96887
O          2.49479        0.13344        0.47065
H          1.36033        0.63077        1.61162
C          3.49828       -1.70879       -1.08578
H          3.63685       -0.96012       -1.86562
H          4.38115       -1.77474       -0.44959
H          3.26120       -2.68053       -1.51900
S         -2.26179       -0.90483        0.00256
O         -2.64265        0.07054       -1.01295
O         -1.75709       -0.35745        1.27205
O         -1.28632       -1.97452       -0.56039
H         -0.30246       -1.61247       -0.73048
C         -3.66157       -1.92963        0.37837
H         -4.43056       -1.27473        0.78879
H         -4.00241       -2.39494       -0.54605
H         -3.35386       -2.67772        1.10799
N          0.53604        1.01429        2.13623
H          0.68247        0.93323        3.13755
H         -0.30093        0.47280        1.85838
H          0.40940        2.03135        1.82469
H          1.14746        4.16857       -0.89337
H          1.95583        2.76864       -0.15290
H          0.58440        2.10940       -2.11599
H          0.06011        1.31743       -0.65153
H         -1.35934        3.42603       -2.05483
H         -1.92529        2.06703       -1.32116
H          0.72086        4.32198        1.41317
H         -0.65557        3.71479        0.73936
C          0.98317        3.23909       -0.32950
C          0.10433        2.29203       -1.14580
N          0.32081        3.50677        0.96011
N         -1.25315        2.82483       -1.24580
