38
2msa1ma1tma_101.log	Energy: -1003279.7069868
S          3.09076        0.37805        0.13901
O          2.95689       -1.09135       -0.05517
O          2.08822        0.89625        1.12944
O          3.06295        1.16386       -1.10875
H          1.07066        2.34463       -1.35141
C          4.69298        0.59913        0.88329
H          4.71547        0.04246        1.82003
H          5.43815        0.21474        0.18662
H          4.84180        1.66441        1.05944
S         -0.48418       -1.70202       -0.27884
O         -1.58610       -2.62605       -0.45052
O         -0.34545       -0.62325       -1.27280
O          0.84353       -2.53378       -0.22879
H          1.67058       -1.93846       -0.20993
C         -0.58566       -0.94153        1.32495
H         -1.44420       -0.26400        1.28954
H         -0.73674       -1.73177        2.06059
H          0.34519       -0.39887        1.51417
N          0.38779        1.93680       -0.71075
H          0.13370        0.99603       -1.07979
C         -0.81840        2.75166       -0.46720
H         -1.51225        2.15598        0.13085
H         -0.54603        3.66545        0.06076
H         -1.28771        2.99927       -1.41948
H          0.93751        1.72022        0.15565
N         -3.55681        0.63544        0.33682
C         -4.07705       -0.53151        1.04116
H         -3.55251       -1.43102        0.70793
H         -3.92289       -0.41271        2.11852
H         -5.15811       -0.67592        0.86207
C         -4.25056        1.83955        0.76575
H         -4.11398        1.98617        1.84145
H         -3.84486        2.71418        0.24606
H         -5.33588        1.79700        0.55763
C         -3.67482        0.45264       -1.10473
H         -3.24310        1.31397       -1.62432
H         -3.12802       -0.44105       -1.41279
H         -4.72804        0.35193       -1.42533
