28
2msa1dma_55.log	Energy: -918451.6695389
S          1.31103       -1.53587        0.05707
O          1.19433       -2.95865        0.29920
O          0.67122       -0.62812        1.03186
O          0.77313       -1.15938       -1.39075
H         -0.19484       -0.93345       -1.35228
C          3.00024       -1.05228       -0.11684
H          3.02411        0.03266       -0.29790
H          3.49216       -1.31457        0.82091
H          3.42425       -1.62210       -0.94409
S         -2.37912        0.30877       -0.03398
O         -1.80773       -0.54219       -1.09015
O         -2.17097        1.73872       -0.13632
O         -1.90108       -0.24284        1.37296
H         -0.91793       -0.43141        1.34239
C         -4.11049       -0.04771        0.09205
H         -4.23731       -1.12344        0.20564
H         -4.50455        0.49281        0.95245
H         -4.57066        0.30772       -0.83027
N          2.58107        2.16582       -0.28515
C          2.44647        2.42148        1.14413
C          1.32417        2.35309       -1.00189
H          3.28664        2.78178       -0.67489
H          1.77192        1.67448        1.57423
H          3.42088        2.32169        1.63116
H          2.03935        3.42021        1.37312
H          0.58519        1.64196       -0.62437
H          0.89723        3.36195       -0.88208
H          1.47199        2.15475       -2.06651
