42
2msa2eda_203.log	Energy: -1072759.4951518
S          1.86314        0.90354        0.96878
O          3.12859        0.18429        1.16981
O          1.14374        0.47934       -0.27502
O          1.98032        2.39368        0.99934
H          0.85043        3.08213        0.10728
C          0.77801        0.47373        2.32174
H          0.69156       -0.61257        2.37756
H          1.21259        0.86781        3.24078
H         -0.21177        0.89194        2.12787
S         -2.39819       -1.16372        0.37538
O         -2.43591        0.16022        1.04419
O         -1.60856       -2.17729        1.13986
O         -1.97770       -1.10106       -1.04252
H          0.77700       -1.17355       -0.18405
C         -4.08141       -1.76765        0.39439
H         -4.40909       -1.83331        1.43214
H         -4.70296       -1.06505       -0.16178
H         -4.09961       -2.75014       -0.07776
H         -0.47296        3.89646       -2.43721
H          0.75135        2.61919       -2.18934
H         -1.72221        1.81455       -2.58854
H         -0.84987        1.10672       -1.23181
H         -3.07140        2.92665       -1.06228
H         -2.51674        1.77699       -0.00189
H          0.43606        4.60365       -0.47032
H         -0.81018        3.56472        0.02689
C         -0.15661        3.07265       -1.79115
C         -1.27949        2.03370       -1.61206
N          0.12515        3.63673       -0.44283
N         -2.24236        2.53548       -0.63218
H          1.17705       -3.82607       -1.42431
H          0.42780       -2.40173       -2.19901
H          2.97243       -2.69246       -2.64284
H          2.48354       -1.11728       -2.00315
H          4.31576       -2.81323       -0.83207
H          3.60262       -1.52229       -0.09212
H         -0.17703       -2.48506        0.20734
H          1.49264       -2.50323        0.52149
C          1.17005       -2.73439       -1.47135
C          2.57152       -2.18275       -1.76203
N          0.76822       -2.22017       -0.14591
N          3.42866       -2.39163       -0.59506
