40
2msa1dma1eda_308.log	Energy: -1038019.2444494
S          0.64514        2.20294       -0.21080
O          0.98526        1.62115        1.10249
O         -0.79493        2.45378       -0.41597
O          1.20057        1.36560       -1.34248
C          1.47939        3.77192       -0.33210
H          2.54779        3.60023       -0.20064
H          1.27183        4.19513       -1.31470
H          1.09259        4.41782        0.45644
S          1.94750       -1.78476       -0.00417
O          2.59056       -3.05413       -0.26176
O          0.48438       -1.70606       -0.17159
O          2.62807       -0.70108       -0.91757
H          2.06489        0.14557       -1.03376
C          2.31555       -1.24488        1.64716
H          1.83724       -1.94914        2.32934
H          3.39840       -1.26455        1.77077
H          1.91606       -0.23498        1.76520
N         -1.65038       -0.05414        1.64557
C         -1.60811       -1.29486        2.40697
C         -2.28541        1.03917        2.37351
H         -0.69957        0.23553        1.42646
H         -2.62748       -1.66888        2.56068
H         -1.04957       -2.04492        1.84128
H         -1.14356       -1.17755        3.40082
H         -3.34853        0.81580        2.52420
H         -1.83288        1.21361        3.36299
H         -2.20194        1.95374        1.78265
H         -2.76288       -0.33101       -2.99770
H         -1.58702       -1.67686       -2.90776
H         -3.79076       -2.24500       -1.85552
H         -2.45136       -2.33330       -0.70483
H         -4.64745       -0.95976       -0.17958
H         -3.16891       -0.38768        0.30500
H         -0.55590        0.43274       -2.22532
H         -1.67259        0.65387       -1.05546
C         -2.16738       -0.95505       -2.32861
C         -3.06372       -1.64207       -1.30403
N         -1.20868       -0.07289       -1.62011
N         -3.74622       -0.63500       -0.50475
H         -0.60689       -0.62659       -0.97849
