26
2msa2a_10.log	Energy: -904651.7219277
S         -1.87068       -0.77140        0.01025
O         -2.23724        0.11614       -1.10768
O         -1.87023       -0.09279        1.33657
O         -0.58572       -1.50340       -0.23030
C         -3.11748       -2.03959        0.10987
H         -4.07658       -1.55540        0.29390
H         -3.13086       -2.57275       -0.84081
H         -2.85696       -2.71097        0.92785
S          2.45836       -0.10977       -0.00190
O          3.83203       -0.11871        0.45100
O          1.76186        1.18569       -0.07304
O          1.64034       -1.08854        0.92124
H          0.69982       -1.23959        0.55163
C          2.32444       -0.85145       -1.61335
H          2.82438       -0.18621       -2.31775
H          2.81834       -1.82235       -1.57799
H          1.26362       -0.95668       -1.84772
N         -0.40901        2.20057        1.30172
H         -0.31785        2.76954        2.13711
H         -0.89926        2.71464        0.51121
H          0.51763        1.89416        0.95312
H         -0.97490        1.33625        1.48151
N         -1.74614        3.04547       -0.99050
H         -2.58637        3.61430       -0.99633
H         -2.01708        2.07950       -1.20331
H         -1.15104        3.37103       -1.74587
