35
2msa1a1tma_85.log	Energy: -978615.4567079
S          2.79927        0.70689       -0.09688
O          2.99503        0.11242        1.23378
O          1.82558        1.80080       -0.14123
O          2.45885       -0.39026       -1.15053
H          1.47567       -0.71946       -1.01135
C          4.36391        1.26136       -0.71585
H          4.72246        2.02822       -0.02896
H          5.04423        0.41036       -0.73711
H          4.21041        1.67150       -1.71346
S         -0.70124       -2.01896       -0.09242
O         -0.08195       -3.32416       -0.26818
O          0.07126       -0.87549       -0.70901
O         -1.01460       -1.65434        1.33136
H         -0.25533       -0.40005        1.79913
C         -2.26402       -2.00076       -0.94614
H         -2.06971       -2.24195       -1.99164
H         -2.89662       -2.76347       -0.49051
H         -2.71460       -1.00822       -0.85362
N          0.30378        0.48822        2.05344
H          1.30531        0.24652        2.12172
H         -0.03530        0.90656        2.91475
H          0.24157        1.15784        1.27925
N         -3.22923        1.36566       -0.33248
C         -1.93289        1.84966       -0.77897
H         -1.16870        1.08039       -0.63662
H         -1.96916        2.07247       -1.84888
H         -1.62560        2.77412       -0.24947
C         -4.28523        2.30742       -0.65881
H         -4.30926        2.47790       -1.73888
H         -5.25401        1.89897       -0.35665
H         -4.14984        3.28602       -0.15788
C         -3.21709        1.06109        1.08607
H         -4.20143        0.70162        1.39987
H         -2.49641        0.26387        1.29087
H         -2.96534        1.94839        1.70437
