40
2msa1dma1eda_50.log	Energy: -1038037.1733362
S         -2.68302        0.84747       -0.15776
O         -2.24916        2.11376        0.49690
O         -3.10210       -0.19887        0.81543
O         -1.67313        0.34822       -1.12243
C         -4.15008        1.26239       -1.08435
H         -4.89584        1.64123       -0.38527
H         -3.88585        2.02449       -1.81751
H         -4.50984        0.35947       -1.57807
S          2.10200       -1.20398       -0.32563
O          1.92332       -2.66064       -0.24214
O          3.45810       -0.67908       -0.11596
O          1.09414       -0.51088        0.58134
C          1.61498       -0.70943       -1.97735
H          2.21371       -1.28211       -2.68652
H          0.55021       -0.90685       -2.10854
H          1.81511        0.35787       -2.08980
N         -1.11216       -2.10321        0.74003
C         -1.32729       -2.82068       -0.53590
C         -0.80562       -2.98529        1.88301
H         -0.30231       -1.44595        0.62546
H         -2.15595       -3.52157       -0.41809
H         -1.57144       -2.07460       -1.29273
H         -0.40761       -3.34739       -0.79466
H         -1.61774       -3.70106        2.02247
H          0.13186       -3.50287        1.67366
H         -0.69355       -2.37345        2.77816
H         -1.93470       -1.48810        0.92100
H          1.22666        3.93413        0.84870
H          0.98079        2.72615        2.12569
H          3.43669        3.05487        1.52998
H          2.86665        1.39142        1.36430
H          3.72034        3.10897       -0.76152
H          3.63297        1.46165       -0.65607
H         -0.54990        2.26651        0.30494
H          0.76633        2.27299       -0.76744
C          1.33813        2.87701        1.10494
C          2.78218        2.39776        0.94479
N          0.47471        2.09294        0.19443
N          3.13989        2.33204       -0.47182
H          0.63933        1.06524        0.34176
