42
2msa2eda_299.log	Energy: -1072756.0142438
S         -3.02840       -0.51027       -0.41490
O         -4.32835       -0.95485        0.08058
O         -1.98603       -0.39002        0.67617
O         -3.04214        0.73263       -1.23512
H         -1.55374        1.83248       -0.91092
C         -2.39363       -1.78895       -1.49444
H         -3.05592       -1.85781       -2.35826
H         -1.37987       -1.51320       -1.78982
H         -2.39104       -2.73131       -0.94435
S          2.07540        0.12687       -1.33641
O          1.90755        1.55921       -0.98461
O          0.83886       -0.66249       -1.16031
O          3.23037       -0.50653       -0.62037
H          2.69441       -1.75556        0.20780
C          2.50650        0.09483       -3.06623
H          3.42923        0.66013       -3.19736
H          2.64326       -0.94415       -3.36656
H          1.69032        0.55245       -3.62578
H         -0.06385        1.79506        2.37269
H         -0.36536        3.49268        2.74386
H         -2.06445        2.71797        1.20925
H         -1.01314        3.88151        0.35403
H          0.13321        1.92898       -0.63200
H         -0.92641        0.91388        0.21870
H          1.91790        3.37212        2.27821
H          1.70945        2.60454        0.83866
C         -0.03262        2.81511        1.95145
C         -1.05675        2.89964        0.82944
N          1.28149        3.24895        1.50054
N         -0.80222        1.86518       -0.20060
H          2.31793       -2.63369        3.01038
H          3.01183       -1.11529        2.37770
H          0.62788       -0.84112        3.29700
H          0.79426       -0.38410        1.59547
H         -0.51892       -2.76578        2.58885
H         -0.92094       -1.74496        1.35467
H          2.97835       -3.28332        0.89746
H          1.38013       -2.77564        0.67346
C          2.21904       -1.85412        2.25058
C          0.81929       -1.22977        2.28963
N          2.35328       -2.48231        0.90836
N         -0.14107       -2.21977        1.82235
