38
2msa1ma1tma_56.log	Energy: -1003281.6791612
S          0.29296       -1.91560        0.23505
O         -0.78927       -1.55835        1.16142
O          1.57324       -2.29952        0.85168
O          0.53049       -0.81343       -0.79255
C         -0.28041       -3.30075       -0.73088
H         -0.45789       -4.12931       -0.04457
H         -1.20621       -3.00896       -1.22826
H          0.48725       -3.56029       -1.45955
S         -1.04662        2.18806        0.03695
O         -1.66640        3.40799       -0.43587
O          0.34911        2.23209        0.49026
O         -1.14695        1.13100       -1.14464
H         -0.52868        0.35236       -0.98807
C         -2.02223        1.46459        1.32956
H         -1.52337        0.54963        1.65380
H         -2.07839        2.20114        2.13215
H         -3.01051        1.22273        0.93421
N         -3.80665       -1.17583        0.41700
H         -2.90981       -1.45065        0.81049
C         -3.75574       -1.21500       -1.04053
H         -3.55053       -2.20934       -1.47189
H         -4.70797       -0.86723       -1.45236
H         -2.98328       -0.52381       -1.38842
H         -4.51113       -1.81116        0.77399
N          2.87616        0.42421       -0.18059
C          3.82874       -0.62221       -0.62851
H          3.58843       -1.54546       -0.10072
H          3.70440       -0.77023       -1.70179
H          4.84762       -0.29489       -0.41018
C          3.04729        1.69318       -0.93163
H          2.91367        1.49019       -1.99495
H          2.28760        2.39698       -0.59292
H          4.05224        2.08037       -0.74879
C          2.94475        0.63115        1.29115
H          2.17613        1.35248        1.56604
H          2.74990       -0.32751        1.77305
H          3.93980        1.00304        1.54636
H          1.91663        0.04790       -0.39181
