32
2msa2ma_179.log	Energy: -953957.1601195
S          1.44583       -0.86767       -0.14629
O          0.64504       -1.36621       -1.25051
O          1.56671        0.60549       -0.03420
O          2.89716       -1.45144       -0.20031
H          3.63734       -0.68612       -0.36522
C          0.82343       -1.51506        1.37989
H         -0.19232       -1.11763        1.48982
H          0.82527       -2.60259        1.30114
H          1.47700       -1.17921        2.18488
S         -2.96113       -0.20136        0.13824
O         -4.27174       -0.16131        0.78103
O         -1.79932        0.04870        1.03795
O         -2.85430        0.70565       -1.06764
H         -1.60507        1.50734       -0.96881
C         -2.73327       -1.84753       -0.51992
H         -2.80914       -2.55469        0.30757
H         -3.52448       -2.03267       -1.24706
H         -1.75023       -1.89960       -0.99089
N         -0.73051        2.13489       -0.77248
H          0.05946        1.51428       -0.52866
C         -1.04002        3.03896        0.35759
H         -0.17095        3.65223        0.60025
H         -1.88650        3.67007        0.08635
H         -1.31470        2.40721        1.20255
H         -0.48924        2.64636       -1.61752
N          4.62779        0.38915       -0.50473
H          5.51877        0.05750       -0.86303
C          4.78802        1.04968        0.80139
H          5.47305        1.90230        0.76553
H          3.80444        1.38658        1.13354
H          5.16530        0.32111        1.52166
H          4.24855        1.04024       -1.18700
