37
2msa1ma1eda_312.log	Energy: -1013357.9849872
S          1.05305       -2.19342       -0.15253
O          0.84742       -2.39533        1.29323
O          2.33688       -1.56748       -0.51912
O         -0.09398       -1.42812       -0.77944
C          1.00478       -3.80074       -0.92265
H          1.82387       -4.39132       -0.51154
H          0.04406       -4.26232       -0.69429
H          1.12629       -3.66658       -1.99738
S         -2.69271        0.57114       -0.48043
O         -3.35529        0.42419       -1.76340
O         -1.51843        1.45050       -0.41648
O         -2.32702       -0.82161        0.15103
H         -1.40497       -1.15745       -0.19175
C         -3.87918        1.12839        0.72125
H         -4.25349        2.09205        0.37448
H         -4.68636        0.39753        0.76566
H         -3.38316        1.22569        1.68654
N          1.12920        0.37749        2.33692
H          1.28370       -0.62657        2.21066
C         -0.23942        0.58376        2.82570
H         -0.42041        0.13347        3.80923
H         -0.45549        1.65478        2.88275
H         -0.93194        0.13240        2.11222
H          1.80723        0.70788        3.01615
H          1.17924        2.67728       -1.72299
H          0.52507        3.00730       -0.11713
H          2.68800        4.18523       -0.39137
H          2.84314        2.92558        0.83630
H          3.86651        2.74280       -1.90147
H          4.65747        2.47750       -0.49084
H          0.44978        0.64649       -0.73460
H          2.10941        0.58044       -0.74971
C          1.34886        2.53264       -0.65256
C          2.70078        3.09684       -0.23616
N          1.30172        1.08703       -0.36705
N          3.76105        2.39833       -0.95369
H          1.29112        0.89185        0.68315
