40
2msa1dma1eda_575.log	Energy: -1038002.6867586
S          1.76362       -1.33242       -0.34225
O          1.32227       -0.12962       -1.08093
O          1.06445       -1.50514        0.95980
O          3.25480       -1.30888       -0.13439
H          3.58001        0.07525        0.40926
C          1.40883       -2.76390       -1.32737
H          0.32289       -2.80743       -1.43378
H          1.90479       -2.64546       -2.29066
H          1.78531       -3.63817       -0.79636
S         -2.43953       -1.49281        0.32011
O         -3.26934       -2.33403        1.16382
O         -1.72074       -2.10779       -0.79415
O         -1.39210       -0.69777        1.22233
H         -0.46120       -1.05759        1.09858
C         -3.40824       -0.13445       -0.28262
H         -4.23566       -0.56818       -0.84590
H         -3.77526        0.43693        0.57018
H         -2.77007        0.48838       -0.91461
N          3.68030        1.09611        0.77205
C          2.61467        1.33120        1.78055
C          3.60252        2.00731       -0.39619
H          4.59473        1.16969        1.21525
H          1.65078        1.24464        1.27885
H          2.68086        0.56120        2.54853
H          2.73249        2.32613        2.21344
H          2.65792        1.80261       -0.90287
H          3.65409        3.04445       -0.05983
H          4.42913        1.78356       -1.07072
H         -1.32003        4.46659       -0.76308
H         -1.45415        4.18132        0.97769
H          0.31566        2.81222        0.03557
H         -0.99270        1.77135        0.63813
H         -0.60166        2.44830       -2.18581
H         -0.38074        0.99320       -1.47328
H         -3.63354        4.15303       -0.08082
H         -3.18057        2.85630       -0.98035
C         -1.62523        3.72322       -0.00309
C         -0.72967        2.49740       -0.13830
N         -3.02870        3.33986       -0.10031
N         -0.92885        1.85067       -1.43213
