42
2msa2eda_89.log	Energy: -1072768.4729297
S          2.26783       -1.17129       -0.36654
O          3.19172       -0.17981       -0.94243
O          1.58519       -2.03215       -1.37268
O          1.27003       -0.55993        0.56639
C          3.25415       -2.27650        0.63017
H          3.76460       -1.68757        1.39262
H          2.59314       -3.01162        1.09008
H          3.97573       -2.76535       -0.02481
S         -2.60555        1.23442       -0.32227
O         -2.90036        0.46157       -1.54563
O         -1.98608        2.56312       -0.56794
O         -1.77408        0.44433        0.64528
C         -4.16134        1.54357        0.49018
H         -4.77907        2.14176       -0.17997
H         -4.63163        0.58136        0.69428
H         -3.96401        2.08227        1.41700
H         -2.76495       -2.91518       -0.51722
H         -1.31657       -3.77685       -1.10485
H         -1.44679       -4.25439        1.22216
H         -0.17056       -3.03632        1.06967
H         -1.82069       -2.58393        2.85602
H         -1.89682       -1.38638        1.74229
H         -1.65031       -1.32446       -1.76310
H         -1.17548       -0.94276       -0.26310
C         -1.67622       -2.97448       -0.45745
C         -1.25715       -3.20191        0.98899
N         -1.11264       -1.69931       -0.97720
N         -2.05618       -2.38136        1.89142
H         -0.10450       -1.81399       -1.23109
H          1.12976        3.90240        0.88817
H          0.83393        2.52509        1.98094
H          3.30878        3.19800        1.77626
H          2.97255        1.50811        1.38136
H          4.08335        3.41633       -0.34892
H          3.66986        1.84463       -0.68845
H          0.74780        1.07087        0.13353
H         -0.28864        2.36202       -0.25093
C          1.31789        2.83911        1.05446
C          2.82058        2.54068        1.04997
N          0.70307        2.09384       -0.06661
N          3.34721        2.72648       -0.29905
H          1.28516        2.27852       -0.89285
