34
2msa1a1eda_11.log	Energy: -988714.7367411
S          2.93119       -0.33994       -0.08934
O          1.98052       -0.39848        1.07656
O          2.95652        0.98561       -0.71935
O          2.66933       -1.47421       -1.02071
C          4.55281       -0.63202        0.59492
H          4.76987        0.16411        1.30719
H          4.55348       -1.60357        1.08899
H          5.26973       -0.61787       -0.22634
S         -2.65417       -0.86763       -0.06185
O         -2.13517       -1.93876       -0.96227
O         -2.95855        0.40078       -0.73671
O         -1.73602       -0.68803        1.11217
C         -4.18583       -1.49436        0.60470
H         -4.87570       -1.64644       -0.22570
H         -3.98454       -2.43608        1.11528
H         -4.58063       -0.75420        1.30103
N          0.34992       -2.52229       -0.06887
H          0.43203       -3.49691        0.20481
H          1.18619       -2.22746       -0.62971
H         -0.57153       -2.35385       -0.55078
H          0.36499       -1.92378        0.76396
H          0.91165        2.28274       -0.83276
H         -0.37528        1.12514       -1.21874
H         -1.12926        3.48188       -1.65175
H         -2.11282        2.64354       -0.44721
H         -0.08627        4.69366        0.11641
H         -1.63736        4.62162        0.63046
H          0.83156        0.89934        1.00761
H         -0.09582        2.27107        1.44780
C         -0.09417        1.95213       -0.56530
C         -1.12427        3.07135       -0.63446
N         -0.03701        1.45127        0.83401
N         -0.82491        4.06070        0.40544
H         -0.82304        0.79258        1.02792
