35
2msa1a1tma_70.log	Energy: -978615.4280244
S          3.57065       -0.20253       -0.01412
O          3.63604        0.00927       -1.44841
O          2.95444       -1.47109        0.43067
O          2.91268        0.99751        0.73361
H          1.96647        1.27724        0.38348
C          5.19454       -0.13572        0.69858
H          5.76181       -0.96188        0.26929
H          5.64179        0.82167        0.43336
H          5.10317       -0.24495        1.77859
S         -0.53941        0.89250       -0.17679
O          0.66304        1.76680       -0.01721
O         -0.76183        0.01942        1.01168
O         -0.50265        0.09529       -1.43160
H          0.11108       -1.56957       -1.00854
C         -1.91360        2.00838       -0.28993
H         -1.91657        2.62054        0.61255
H         -1.76378        2.62702       -1.17500
H         -2.83159        1.41433       -0.36362
N          0.38001       -2.14956       -0.18646
H         -0.12982       -1.67422        0.58349
H          1.40179       -2.02065       -0.00956
H          0.12712       -3.12685       -0.29050
N         -4.41594       -0.20613        0.06230
C         -4.18380       -0.26395        1.49697
H         -3.10798       -0.25589        1.69469
H         -4.62965        0.61268        1.97686
H         -4.62520       -1.16940        1.95690
C         -5.83207       -0.13270       -0.24682
H         -6.27255        0.74410        0.23686
H         -5.97305       -0.03253       -1.32714
H         -6.38632       -1.02914        0.09330
C         -3.78348       -1.32318       -0.61665
H         -3.91954       -1.22639       -1.69762
H         -2.70996       -1.31121       -0.40979
H         -4.19899       -2.29935       -0.29675
