35
2msa1a1tma_49.log	Energy: -978621.6792361
S         -1.94498       -0.16573       -0.49036
O         -1.59365        1.15619        0.04098
O         -1.94075       -1.28815        0.44113
O         -1.04190       -0.48542       -1.73753
H         -0.08949       -0.81878       -1.47091
C         -3.53306       -0.04994       -1.27100
H         -3.49626        0.74471       -2.01570
H         -3.75648       -1.01222       -1.73092
H         -4.23595        0.18233       -0.46547
S          1.79807       -1.43572        0.19388
O          3.25384       -1.56039        0.23840
O          1.29002       -1.20815       -1.20778
O          1.24424       -0.38277        1.10308
H          1.24565        1.07194        0.47582
C          1.06105       -2.95886        0.74334
H          1.38495       -3.75058        0.06743
H          1.40815       -3.15062        1.75879
H         -0.02232       -2.82794        0.71938
N         -4.18307        0.36355        1.94578
H         -4.82704        0.46382        2.72224
H         -3.48745        1.10015        2.01301
H         -3.68562       -0.51610        2.05311
N          1.53977        2.02607        0.10125
C          3.00635        2.07120        0.32297
H          3.20074        1.97636        1.39120
H          3.46483        1.22442       -0.19005
H          3.40231        3.01568       -0.05743
C          1.20467        2.07673       -1.34397
H          1.66435        1.21687       -1.83281
H          0.12224        2.01215       -1.44681
H          1.58285        3.01221       -1.76370
C          0.81846        3.06107        0.87669
H         -0.24990        2.91756        0.71950
H          1.05335        2.93114        1.93365
H          1.13563        4.05119        0.53964
