40
2msa1dma1eda_578.log	Energy: -1037994.4753956
S         -0.07890       -2.49629       -0.35680
O          0.26977       -3.89507       -0.43516
O          0.61589       -1.53887       -1.23720
O          0.11657       -2.00203        1.14130
H          0.62047       -1.14191        1.17789
C         -1.82086       -2.30164       -0.61020
H         -2.02141       -2.61006       -1.63750
H         -2.32690       -2.96781        0.08963
H         -2.12753       -1.26218       -0.44582
S          2.61865        0.73518        0.48792
O          3.83719        0.83183        1.25514
O          1.38001        0.32118        1.18329
O          2.86669       -0.27305       -0.70609
H          2.03208       -0.75594       -0.96264
C          2.28336        2.27007       -0.32869
H          2.16438        3.02440        0.45109
H          3.14709        2.50266       -0.95232
H          1.35973        2.15581       -0.91577
N         -0.71351        1.87721       -1.50162
C         -1.13492        1.01474       -2.59300
C         -1.31834        3.19597       -1.55437
H         -0.93057        1.45834       -0.59791
H         -0.80251        1.44174       -3.54571
H         -0.67049        0.03304       -2.48096
H         -2.23109        0.88422       -2.64936
H         -0.95353        3.73790       -2.43416
H         -2.42268        3.17546       -1.61622
H         -1.04018        3.76353       -0.66182
H         -4.07577        1.50525        1.92798
H         -4.13791       -0.26088        1.96013
H         -2.21696        0.54084        3.23804
H         -1.68764       -0.39481        1.83746
H         -1.58780        2.51817        2.06286
H         -0.36377        1.46711        1.75888
H         -4.46932        0.48808       -0.27745
H         -3.05778        1.31361       -0.26333
C         -3.57218        0.59165        1.56933
C         -2.15980        0.54424        2.13941
N         -3.53203        0.49673        0.11013
N         -1.35281        1.64308        1.60488
