38
2msa1ma1tma_02.log	Energy: -1003298.6282736
S          2.92349        0.10536       -0.05132
O          2.83359        1.55638       -0.29533
O          2.63509       -0.74287       -1.22986
O          2.09065       -0.32040        1.12807
C          4.61596       -0.22173        0.41906
H          5.25937        0.08387       -0.40647
H          4.84055        0.35683        1.31536
H          4.72328       -1.28913        0.61378
S         -2.67946       -0.79030        0.11337
O         -3.12750        0.22521        1.07967
O         -2.20508       -2.06194        0.71374
O         -1.65574       -0.23882       -0.84504
C         -4.09302       -1.22226       -0.88746
H         -4.85067       -1.64447       -0.22685
H         -4.46537       -0.31706       -1.36757
H         -3.78033       -1.95428       -1.63197
N          0.45761       -2.15344       -0.00602
H          0.36515       -1.66374       -0.89837
H          1.02692       -1.49239        0.58215
C          1.15703       -3.44126       -0.17311
H          1.29331       -3.89927        0.80645
H          0.56175       -4.10116       -0.80474
H          2.12410       -3.24587       -0.63602
H         -0.50274       -2.24740        0.38216
N         -0.87835        2.25074       -0.08786
C          0.07669        2.84133       -1.06136
H          1.02542        2.30182       -1.01178
H         -0.36161        2.77152       -2.05795
H          0.24063        3.88911       -0.79849
C         -2.15518        3.00436       -0.04053
H         -2.55921        3.07453       -1.05156
H         -2.84965        2.45727        0.59733
H         -1.96124        4.00492        0.35238
C         -0.28383        2.10195        1.26891
H         -1.02807        1.62429        1.90756
H          0.61161        1.48125        1.20202
H         -0.02583        3.09304        1.64885
H         -1.12074        1.27946       -0.41499
