34
2msa1a1eda_252.log	Energy: -988699.7111336
S          2.05516       -1.18423       -0.30334
O          3.46729       -1.54735       -0.37588
O          1.56132       -0.26825       -1.35013
O          1.70077       -0.60421        1.07446
H          1.81491        1.01149        0.97292
C          1.08863       -2.68091       -0.41294
H          1.30452       -3.13053       -1.38286
H          1.40481       -3.35388        0.38535
H          0.02522       -2.43898       -0.33695
S         -2.54760       -0.33838       -0.18196
O         -3.98927       -0.13872       -0.28101
O         -2.14136       -1.71670        0.27301
O         -1.83704        0.68351        0.66003
H         -1.06676       -0.16814        2.32550
C         -1.86242       -0.18466       -1.82432
H         -2.32959       -0.94831       -2.44727
H         -2.10988        0.80810       -2.20379
H         -0.77995       -0.32840       -1.77888
N         -0.64133       -1.10333        2.33096
H          0.32652       -1.00725        1.93439
H         -1.24471       -1.59910        1.60572
H         -0.65728       -1.54158        3.24559
H          2.24551        3.66958       -0.34187
H          2.40116        2.03786       -1.08030
H          0.19532        3.24938       -1.66214
H          0.04602        1.63903       -0.94621
H         -0.72708        4.12486        0.28682
H         -1.23979        2.56441        0.54867
H          2.77968        2.30511        1.46086
H          1.09111        2.48512        1.46143
C          1.83091        2.65896       -0.38960
C          0.34026        2.67031       -0.74446
N          1.91576        2.07275        0.97798
N         -0.42851        3.16409        0.39704
