30
2msa1eda_83.log	Energy: -953201.7312451
S         -0.92846        1.52459       -0.09324
O         -0.42754        1.02939       -1.38394
O         -0.57260        0.61982        1.05222
O         -2.40951        1.74440       -0.07465
H         -2.98083        0.33370        0.45584
C         -0.14929        3.08690        0.23171
H          0.92466        2.89721        0.28330
H         -0.39409        3.76427       -0.58656
H         -0.52583        3.46796        1.18084
S          2.67511       -0.38220        0.12303
O          3.78744       -1.22687        0.50904
O          2.69347        1.04351        0.42224
O          1.35980       -1.01590        0.77107
H          0.65125       -0.30015        0.90712
C          2.37533       -0.58508       -1.62023
H          3.23994       -0.17125       -2.14087
H          2.27932       -1.65115       -1.82708
H          1.46393       -0.03742       -1.86851
H         -3.93928       -2.37633       -0.29598
H         -3.62911       -0.96499       -1.34117
H         -1.85302       -2.78672       -1.53196
H         -1.20574       -1.21459       -1.05566
H         -1.44892       -3.56115        0.64188
H         -0.31623       -2.36465        0.64726
H         -4.12840       -0.66352        1.21465
H         -2.49554       -1.05070        1.32184
C         -3.26014       -1.54263       -0.49220
C         -1.82976       -2.04847       -0.72176
N         -3.24394       -0.66736        0.71366
N         -1.30659       -2.56375        0.53855
