43
2msa1eda1tma_246.log	Energy: -1062668.4732623
S         -0.70402       -1.61968       -0.15562
O          0.30576       -2.63371        0.15487
O         -0.58551       -0.93083       -1.43604
O         -0.78336       -0.56410        1.01865
H          0.03869        0.05497        1.00502
C         -2.30641       -2.35792       -0.00015
H         -2.36383       -3.12263       -0.77611
H         -2.37231       -2.81289        0.98826
H         -3.07724       -1.58958       -0.14260
S          1.45731        2.16089        0.13989
O          1.77642        3.32560        0.95543
O          1.27533        0.89542        0.93640
O          2.43253        1.90673       -0.97166
H          3.23863        0.61868       -1.00903
C         -0.10169        2.45338       -0.67526
H         -0.84343        2.68423        0.09035
H          0.03027        3.30621       -1.34156
H         -0.37518        1.55608       -1.23423
H          5.43105       -0.92117        0.29110
H          4.41039        0.38182        0.96284
H          3.81350       -1.97551        1.82090
H          2.48035       -1.08329        1.07726
H          3.82313       -3.39834       -0.03635
H          2.25708       -2.87984       -0.18132
H          4.73391        0.13824       -1.62195
H          3.57110       -1.05728       -1.39684
C          4.41519       -0.52089        0.34947
C          3.43367       -1.57580        0.87422
N          3.97086       -0.17316       -1.02686
N          3.23100       -2.58642       -0.16056
N         -4.43056        0.15280       -0.03194
C         -4.55493        0.26279        1.41210
H         -5.22662       -0.51610        1.78617
H         -3.57349        0.12605        1.87623
H         -4.95530        1.24438        1.72855
C         -3.49182        1.13407       -0.55088
H         -2.52624        1.00230       -0.05782
H         -3.34631        0.98103       -1.62408
H         -3.83384        2.17358       -0.38556
C         -5.72083        0.25031       -0.69016
H         -5.59655        0.10970       -1.76787
H         -6.39004       -0.53118       -0.31780
H         -6.20792        1.23009       -0.52352
