38
2msa1ma1tma_75.log	Energy: -1003277.3227018
S          2.71001       -0.91628       -0.30601
O          3.12080        0.46812       -0.05568
O          1.86879       -1.14498       -1.47533
O          2.05650       -1.53099        0.98030
H          1.14416       -1.07151        1.19411
C          4.16390       -1.93218       -0.40231
H          4.73218       -1.58914       -1.26733
H          4.73593       -1.80144        0.51563
H          3.85274       -2.96843       -0.53065
S         -1.37662       -0.53079        0.70620
O         -2.55147       -0.59672        1.57423
O         -0.08915       -0.36748        1.47612
O         -1.45495        0.54936       -0.33260
H         -0.35485        1.65877       -0.15486
C         -1.24762       -2.06093       -0.19192
H         -1.08956       -2.85795        0.53629
H         -2.19927       -2.20588       -0.71199
H         -0.40646       -1.98555       -0.88339
N         -4.56176       -1.65503       -0.55306
H         -5.43503       -2.16596       -0.48998
C         -4.72712       -0.42865       -1.32985
H         -5.50267        0.25430       -0.94955
H         -3.77728        0.11316       -1.33535
H         -4.97451       -0.68076       -2.36608
H         -4.26248       -1.42739        0.39234
N          0.17018        2.58517       -0.08794
C          1.03381        2.69916       -1.28843
H          1.78590        1.91111       -1.25010
H          0.41219        2.58138       -2.17663
H          1.51534        3.68029       -1.29131
C         -0.90051        3.60859       -0.07163
H         -1.48503        3.51977       -0.98749
H         -1.54876        3.42059        0.78447
H         -0.45244        4.60243       -0.00013
C          0.95818        2.59222        1.17094
H          0.29206        2.34617        1.99770
H          1.73902        1.83643        1.09539
H          1.39756        3.58406        1.30581
