40
2msa1dma1eda_496.log	Energy: -1038008.3245986
S         -0.74471       -2.12521        0.30026
O          0.17819       -1.54907        1.31350
O         -0.07047       -2.74454       -0.84995
O         -1.78771       -1.11961       -0.08973
C         -1.64597       -3.43005        1.12855
H         -0.92743       -4.18864        1.44009
H         -2.15597       -3.00646        1.99408
H         -2.36329       -3.84983        0.42266
S          2.74755        0.33489       -0.62225
O          1.45106        0.80299       -1.09907
O          3.35413        0.94625        0.54495
O          3.79122        0.56773       -1.84917
H          3.27762        0.77256       -2.64315
C          2.76767       -1.42244       -0.44254
H          2.14066       -1.64596        0.42577
H          2.31441       -1.87381       -1.32500
H          3.80555       -1.72228       -0.29800
N         -3.30285        1.86838       -1.27655
C         -4.28986        1.14556       -0.47125
C         -2.87398        1.09310       -2.44538
H         -3.69388        2.75398       -1.58094
H         -3.82625        0.23054       -0.08891
H         -4.59930        1.76603        0.37479
H         -5.18406        0.86274       -1.04665
H         -2.38994        0.17416       -2.10013
H         -3.71365        0.81645       -3.10002
H         -2.15172        1.67417       -3.02474
H         -1.62436        2.67155        1.93251
H         -1.87917        0.92325        2.17121
H          0.06923        1.70825        3.52465
H          0.57086        0.57363        2.26472
H          1.11906        3.42910        2.34488
H          2.00944        2.20486        1.68233
H         -1.82127        1.84846       -0.24121
H         -0.12768        1.82729        0.02699
C         -1.19116        1.67785        1.78344
C          0.18434        1.58215        2.44052
N         -1.03407        1.44947        0.32962
N          1.07126        2.56280        1.82425
H         -1.07223        0.42347        0.13055
