25
2msa1ma_49.log	Energy: -893791.4152214
S         -1.33107        0.21082       -0.18244
O         -0.32653        1.26356       -0.12214
O         -2.19345        0.14286       -1.36354
O         -2.24651        0.29096        1.09789
H         -3.25928        0.41014        0.81277
C         -0.51936       -1.35299        0.03922
H          0.17828       -1.47840       -0.79056
H          0.03068       -1.32425        0.98045
H         -1.27760       -2.13560        0.04157
S          3.02439       -0.15514        0.07036
O          2.51925       -0.62717        1.34200
O          2.59827       -0.79278       -1.16797
O          4.65009       -0.26768        0.10851
H          4.92084       -0.83293       -0.62897
C          2.82281        1.60194       -0.03100
H          1.74424        1.77760       -0.03821
H          3.29093        2.04597        0.84734
H          3.28833        1.95034       -0.95225
N         -4.66983        0.51503        0.26198
H         -5.30471        1.09320        0.80361
C         -5.21825       -0.83197        0.05082
H         -6.18947       -0.82566       -0.45481
H         -4.50955       -1.39807       -0.55687
H         -5.32437       -1.33110        1.01632
H         -4.51276        0.97264       -0.63314
