37
2msa1ma1eda_455.log	Energy: -1013352.4947751
S          2.58434       -0.00094       -0.51274
O          3.05196       -0.48966        0.80430
O          1.83326        1.28536       -0.38442
O          1.81580       -1.01889       -1.28287
H          0.30827       -1.16357       -1.15010
C          4.02858        0.34031       -1.49477
H          4.57268       -0.59550       -1.62248
H          3.69945        0.73104       -2.45756
H          4.63462        1.07288       -0.96194
S         -1.32447       -1.89573        0.14096
O         -0.85610       -3.26149        0.27900
O         -0.71593       -1.18932       -1.12256
O         -1.14842       -1.01904        1.32098
H          0.13994       -0.06909        1.84445
C         -3.03631       -1.83687       -0.29968
H         -3.17418       -2.46210       -1.18197
H         -3.58799       -2.24056        0.55022
H         -3.30044       -0.78971       -0.50143
N          0.88163        0.61519        2.11304
H          1.76907        0.09162        2.16555
C          0.52558        1.36047        3.33401
H          1.30731        2.08473        3.56182
H         -0.41971        1.87672        3.16669
H          0.41496        0.66072        4.16190
H          1.03395        1.21378        1.27857
H         -3.23558        3.39393       -0.50057
H         -3.49005        2.19360        0.77693
H         -1.15338        2.87665        0.75396
H         -1.29544        1.17478        0.25463
H         -0.75571        3.42048       -1.53033
H          0.09259        2.02821       -1.32449
H         -4.44116        1.59350       -1.46593
H         -2.88839        1.38495       -1.96049
C         -3.01275        2.35676       -0.19676
C         -1.50136        2.20474       -0.05130
N         -3.50532        1.36399       -1.14974
N         -0.84141        2.42961       -1.33093
