30
2msa1eda_61.log	Energy: -953204.4918350
S         -1.47670       -1.42749       -0.01244
O         -1.91302       -0.61886       -1.19162
O         -1.46172       -0.64537        1.23311
O         -0.18423       -2.13339       -0.28236
C         -2.67925       -2.72906        0.15234
H         -3.65155       -2.26760        0.32580
H         -2.68372       -3.30935       -0.77017
H         -2.38798       -3.34896        1.00030
S          2.50059        0.06804        0.10042
O          2.13380        0.89603        1.23882
O          2.00816        0.53366       -1.21144
O          2.12541       -1.42746        0.31361
H          1.13056       -1.66609        0.09005
C          4.26654       -0.07508        0.00963
H          4.66285        0.93194       -0.12270
H          4.61881       -0.50768        0.94581
H          4.52035       -0.71035       -0.83815
H         -0.37570        1.66218        0.91023
H          0.10135        3.19658        0.16250
H         -2.02886        3.49898        1.30523
H         -2.30718        3.65990       -0.41746
H         -3.29958        1.51179       -0.45191
H         -2.84877        1.19095        1.07327
H          0.45402        1.32908       -1.28405
H         -1.13967        0.83596       -1.20708
C         -0.64141        2.39486        0.14549
C         -2.05561        2.93385        0.36712
N         -0.51531        1.69033       -1.16470
N         -3.11560        1.94632        0.44600
H         -0.73958        2.30293       -1.94698
