40
2msa1dma1eda_224.log	Energy: -1038019.5310455
S         -2.25023       -1.06575       -0.43196
O         -1.67479        0.28938       -0.51253
O         -2.89201       -1.41406        0.82694
O         -1.18357       -2.12006       -0.84794
H         -0.21843       -1.89036       -0.48411
C         -3.41704       -1.25088       -1.75707
H         -4.22937       -0.54830       -1.56938
H         -2.91094       -1.02660       -2.69541
H         -3.78431       -2.27690       -1.74283
S          2.13134       -0.88928       -0.66509
O          1.75789       -0.64909       -2.05802
O          1.02216       -1.57544        0.12061
O          2.59788        0.29599        0.09170
H          1.22072        0.91594        1.11230
C          3.47887       -2.05697       -0.64327
H          3.15620       -2.96129       -1.15944
H          4.32242       -1.59874       -1.16023
H          3.73273       -2.26885        0.39533
N          0.27862        3.53029       -0.52206
C         -1.13246        3.81458       -0.78341
C          0.91520        2.80075       -1.62578
H          0.77733        4.39940       -0.36079
H         -1.67786        2.86716       -0.83878
H         -1.54870        4.40765        0.03550
H         -1.28966        4.35580       -1.72825
H          0.42320        1.83204       -1.75355
H          0.85366        3.34517       -2.57898
H          1.96127        2.60193       -1.38552
H         -1.25617       -0.48329        2.59348
H         -0.75957        0.07887        4.19031
H         -1.12152        1.96608        2.63899
H          0.56521        1.89949        3.21889
H         -0.36779        0.81322        0.62822
H          0.34218        2.30208        0.75793
H          0.77671       -1.55179        3.78464
H          0.95526       -1.20505        2.19660
C         -0.42823       -0.02070        3.15185
C         -0.19303        1.38861        2.62125
N          0.80946       -0.79140        3.11673
N          0.28610        1.35266        1.22110
