43
2msa1eda1tma_279.log	Energy: -1062664.6370083
S          1.15806       -0.95499       -1.17223
O          0.40369       -0.55471        0.07527
O          1.68171       -2.31585       -1.07285
O          2.22054        0.07943       -1.43714
H          2.92416        0.34094       -0.10563
C          0.01080       -0.85580       -2.52043
H         -0.79927       -1.56100       -2.30777
H         -0.37108        0.16600       -2.57459
H          0.54889       -1.12404       -3.43002
S         -1.88338        1.96517       -0.26143
O         -2.86811        0.93593        0.05586
O         -1.56806        2.19362       -1.66473
O         -0.55536        1.70584        0.55608
H         -0.16016        0.78011        0.30764
C         -2.38743        3.49578        0.48761
H         -3.31514        3.79097       -0.00357
H         -2.55174        3.32385        1.55084
H         -1.60960        4.23965        0.31767
H         -2.41208       -3.83013        0.40942
H         -0.87321       -3.00172        0.18955
H         -1.65644       -2.81526        2.51714
H         -1.47378       -1.24475        1.74254
H         -3.77764       -1.03235        1.55685
H         -4.07199       -2.56141        2.07520
H         -3.52097       -2.24345       -0.78264
H         -2.39319       -1.09916       -0.60073
C         -1.94046       -2.83911        0.38077
C         -2.08165       -2.15590        1.74920
N         -2.51769       -2.09934       -0.74240
N         -3.43134       -1.77727        2.15368
N          3.43393        0.45632        0.84101
C          4.74448        1.07466        0.54495
H          5.29139        0.42869       -0.14232
H          4.57926        2.04432        0.07432
H          5.30886        1.19972        1.47232
C          2.59018        1.31813        1.70240
H          2.41446        2.26558        1.19244
H          1.63607        0.81754        1.86145
H          3.09833        1.48630        2.65528
C          3.57569       -0.90960        1.40575
H          2.58058       -1.33515        1.53765
H          4.12709       -1.52753        0.69704
H          4.10316       -0.85170        2.36106
