40
2msa1dma1eda_139.log	Energy: -1038022.2613267
S         -0.90120        2.42792        0.38019
O         -0.63493        3.68453        1.04790
O         -1.27095        1.36811        1.48288
O          0.15210        1.87451       -0.48772
H          0.82808        0.23323       -0.73119
C         -2.38318        2.55398       -0.59026
H         -3.17610        2.91447        0.06519
H         -2.18503        3.27107       -1.38780
H         -2.61544        1.56175       -0.98660
S         -1.85311       -1.59577       -0.49350
O         -0.88972       -2.20790       -1.44231
O         -2.77966       -0.62154       -1.08281
O         -1.11375       -1.03211        0.69651
H         -1.26311        0.40507        1.12806
C         -2.83126       -2.93850        0.15523
H         -2.16145       -3.65831        0.62586
H         -3.53406       -2.52860        0.88086
H         -3.36263       -3.39597       -0.67965
N          2.32583       -1.43349        1.45322
C          1.65345       -2.63747        1.93634
C          1.98794       -0.24297        2.23325
H          3.33291       -1.55813        1.45348
H          0.57612       -2.50507        1.80205
H          1.97295       -3.49997        1.34501
H          1.85522       -2.84140        2.99881
H          0.91383       -0.05828        2.15361
H          2.24209       -0.34581        3.29818
H          2.51589        0.61871        1.81794
H          2.85592       -1.19152       -2.34400
H          1.68943       -0.02463       -2.98624
H          3.74570        1.17456       -2.63207
H          2.58475        1.70910       -1.41168
H          4.85521       -0.07580       -0.94252
H          4.46772        1.31132       -0.17513
H          0.63624       -1.31399       -1.27751
H          1.83914       -0.96893       -0.12245
C          2.28159       -0.29057       -2.10685
C          3.20194        0.86247       -1.72850
N          1.35346       -0.61321       -1.00594
N          4.07611        0.48761       -0.61729
