32
2msa1a1dma_43.log	Energy: -953966.9823244
S          2.53951        0.20256        0.07586
O          2.31555       -0.91985        1.00437
O          2.72280        1.52173        0.65217
O          1.40752        0.19085       -1.00080
H          0.63993        0.92843       -0.88884
C          3.95150       -0.22628       -0.91498
H          4.80526       -0.29307       -0.23999
H          3.76225       -1.18576       -1.39542
H          4.10098        0.56112       -1.65326
S         -1.68057        1.48131       -0.10149
O         -2.44647        0.40128       -0.75049
O         -0.41652        1.82240       -0.84095
O         -1.42823        1.24174        1.34342
H         -0.71667       -0.22544        1.87545
C         -2.65196        2.96833       -0.20096
H         -2.82974        3.18397       -1.25438
H         -3.59145        2.78695        0.32122
H         -2.09136        3.77357        0.27318
N         -0.31324       -1.18656        1.95249
H         -0.79954       -1.77047        1.16974
H         -0.47447       -1.57152        2.87771
H          0.70088       -1.13320        1.75037
N         -1.51910       -2.35020       -0.19466
C         -2.56696       -3.34654        0.00480
C         -0.49116       -2.78116       -1.14217
H         -1.93779       -1.47857       -0.53307
H         -2.13850       -4.24748        0.45698
H         -3.32765       -2.94771        0.68089
H         -3.05619       -3.63691       -0.93603
H          0.03343       -3.65461       -0.74019
H         -0.91338       -3.05152       -2.12046
H          0.23181       -1.97368       -1.28050
