25
2msa1ma_33.log	Energy: -893802.4283703
S         -1.89545       -0.77010       -0.02299
O         -1.12184       -0.47059       -1.28112
O         -3.33893       -0.74640       -0.21229
O         -1.40371        0.16831        1.05775
H         -1.10411        1.51723        0.34292
C         -1.40261       -2.39724        0.49849
H         -1.75232       -3.10009       -0.25816
H         -0.31424       -2.42652        0.57315
H         -1.87902       -2.59835        1.45826
S          2.24671       -0.35262       -0.07607
O          3.57501        0.09394       -0.43559
O          1.89056       -1.76186       -0.11760
O          1.21599        0.45102       -1.00564
H          0.33761       -0.06849       -1.14052
C          1.85018        0.26979        1.54716
H          2.47215       -0.27858        2.25592
H          2.09659        1.33202        1.58044
H          0.78828        0.09330        1.73446
N         -0.80837        2.31270       -0.32681
H          0.15455        2.07237       -0.59739
C         -0.94443        3.66281        0.25790
H         -0.61408        4.41627       -0.45690
H         -1.98865        3.82960        0.51959
H         -0.33434        3.71599        1.15905
H         -1.37956        2.18245       -1.16351
