41
2msa1dma1tma_90.log	Energy: -1027941.8507667
S          0.83240        2.02916        0.20144
O          0.35070        1.94833       -1.18706
O          2.25773        1.74031        0.40676
O         -0.01658        1.16559        1.12189
C          0.53834        3.70139        0.75527
H          1.13864        4.36578        0.13309
H         -0.52327        3.92067        0.63709
H          0.83744        3.77852        1.80065
S         -2.63174       -0.37399       -0.36976
O         -3.98888       -0.86984       -0.27144
O         -1.52720       -1.31696       -0.14414
O         -2.47644        0.82354        0.64294
H         -1.48329        1.01316        0.82684
C         -2.37952        0.38563       -1.95570
H         -2.41576       -0.40710       -2.70395
H         -3.18601        1.10203       -2.11309
H         -1.40674        0.88441       -1.94136
N          2.33691       -1.71161       -1.68304
C          3.40674       -0.71979       -1.79312
C          1.10584       -1.25852       -2.32874
H          2.64291       -2.57106       -2.12943
H          3.12260        0.18268       -1.24294
H          4.32380       -1.11908       -1.34849
H          3.62182       -0.43273       -2.83542
H          0.78262       -0.32142       -1.86745
H          1.23083       -1.06959       -3.40791
H          0.31362       -1.99978       -2.18773
N          0.74394       -1.58253        1.49187
C          2.16071       -1.17270        1.68671
H          2.68320       -1.34570        0.74604
H          2.18979       -0.11044        1.92530
H          2.58499       -1.77892        2.49024
C         -0.06171       -1.39765        2.72560
H          0.02331       -0.35560        3.03039
H         -1.10111       -1.63097        2.49505
H          0.32253       -2.06726        3.49777
C          0.64862       -2.96977        0.96800
H         -0.39913       -3.19515        0.77753
H          1.22409       -3.00620        0.04176
H          1.06800       -3.64990        1.71276
H          0.31983       -0.94944        0.79473
