26
2msa2a_86.log	Energy: -904630.1583492
S          2.11143        0.46635       -0.36096
O          1.26063       -0.36847       -1.21572
O          3.41556        0.83852       -0.89890
O          2.30556       -0.24212        1.03099
H          3.28761       -0.58147        1.12406
C          1.18935        1.90990        0.09018
H          0.96875        2.44112       -0.83673
H          0.26615        1.57992        0.57243
H          1.80587        2.51710        0.75227
S         -2.11098       -0.48879       -0.18055
O         -2.66854        0.20311       -1.33253
O         -1.51633        0.33156        0.87501
O         -1.04903       -1.58090       -0.64952
H         -0.17998       -1.14812       -0.86497
C         -3.32814       -1.57113        0.51685
H         -2.87110       -2.11610        1.34209
H         -4.13094       -0.91282        0.86231
H         -3.67264       -2.24637       -0.26609
N         -4.59236        1.44632        0.92414
H         -4.43774        1.58537       -0.07031
H         -3.73895        1.72581        1.39845
H         -5.33875        2.06445        1.22106
N          4.79896       -0.99631        1.10089
H          4.95435       -1.98474        0.92913
H          5.34388       -0.72613        1.91330
H          5.13997       -0.47520        0.29511
