35
2msa1ma1dma_145.log	Energy: -978623.1882081
S          3.42897       -0.56028        0.04609
O          3.00395       -1.60613       -0.89253
O          2.50819       -0.35048        1.19248
O          3.73209        0.75450       -0.62754
H          2.46793        1.65980       -0.57937
C          4.99418       -1.08091        0.73476
H          4.83660       -2.03635        1.23603
H          5.70688       -1.19093       -0.08292
H          5.33219       -0.32482        1.44357
S         -1.44399       -0.15558       -0.43467
O         -0.75100        0.97113       -1.10085
O         -2.52231       -0.74328       -1.29308
O         -2.00027        0.22700        0.90486
H         -3.71186        0.06379        0.88162
C         -0.24339       -1.42997       -0.15449
H          0.51599       -1.05560        0.53737
H         -0.76033       -2.29495        0.26179
H          0.22985       -1.67628       -1.10535
N          1.57529        2.24623       -0.45056
H          1.62327        3.06183       -1.05613
C          1.41577        2.61839        0.97400
H          0.44642        3.09505        1.12197
H          1.48511        1.69722        1.55309
H          2.22309        3.29124        1.26425
H          0.75381        1.67730       -0.74999
N         -4.54711       -0.21937        0.31063
C         -5.32533        0.97091       -0.08120
C         -5.31504       -1.28955        0.97104
H         -4.00619       -0.58199       -0.51898
H         -5.77559        1.42216        0.80437
H         -4.64660        1.68058       -0.55495
H         -6.10428        0.67958       -0.78743
H         -5.77480       -0.90094        1.88121
H         -6.08817       -1.65468        0.29316
H         -4.63247       -2.10148        1.22215
