37
2msa1ma1eda_585.log	Energy: -1013340.2771532
S          2.55900       -1.18135       -0.12241
O          3.22123       -2.42091       -0.48918
O          1.73641       -1.16024        1.08489
O          1.66976       -0.67276       -1.34616
H          0.69655       -0.79438       -1.15053
C          3.75690        0.12376       -0.05394
H          4.45799       -0.14242        0.73861
H          4.26930        0.15475       -1.01605
H          3.25219        1.07275        0.16429
S         -1.80132       -1.31446        0.13694
O         -0.91140       -0.87236       -0.96605
O         -3.15375       -1.68717       -0.37078
O         -1.92348       -0.27516        1.21191
H         -3.30642        0.67357        0.76238
C         -1.07732       -2.75006        0.88431
H         -0.99087       -3.51606        0.11308
H         -0.09409       -2.45888        1.26039
H         -1.73603       -3.07828        1.68812
N         -4.02283        0.81448        0.00612
H         -4.10695       -0.17658       -0.32176
C         -3.45359        1.66995       -1.06601
H         -4.15890        1.73300       -1.89390
H         -3.24529        2.66048       -0.66266
H         -2.52376        1.20564       -1.39888
H         -4.90347        1.16305        0.37622
H          0.88987        4.51187       -0.09853
H          1.75897        3.55942       -1.31378
H         -0.53776        2.75934       -1.10984
H          0.59023        1.51258       -0.57154
H         -1.10075        3.11972        1.18990
H         -0.82286        1.47824        1.18776
H          2.99918        3.84330        0.82016
H          1.85990        2.89101        1.52871
C          1.31238        3.51429       -0.31378
C          0.17924        2.49199       -0.31552
N          2.32852        3.10230        0.64987
N         -0.41793        2.39321        1.01087
