34
2msa1a1eda_251.log	Energy: -988694.5532003
S          2.26792       -0.50838        0.06619
O          1.70417       -1.28295       -1.02361
O          2.10658        0.95734        0.00392
O          3.80707       -0.81554        0.22099
H          4.37815        0.02722        0.02411
C          1.61499       -1.10671        1.60081
H          0.52624       -0.98222        1.55277
H          1.88121       -2.16091        1.68430
H          2.05314       -0.52765        2.41346
S         -2.20229       -1.24274       -0.12943
O         -3.60610       -1.50883        0.17998
O         -1.44908       -0.57571        0.98380
O         -1.99574       -0.47354       -1.40456
H         -1.05776        0.77916       -1.08330
C         -1.39083       -2.81129       -0.39078
H         -1.48208       -3.39399        0.52680
H         -1.89706       -3.31594       -1.21420
H         -0.34591       -2.62047       -0.64147
N          5.11758        1.39377       -0.26987
H          5.80924        1.68323        0.41405
H          4.34142        2.05140       -0.24476
H          5.54342        1.43894       -1.19024
H         -0.94219        3.66871       -0.29680
H         -1.63649        2.99570       -1.80151
H         -3.37183        3.49416       -0.05577
H         -3.34594        1.78386       -0.50530
H         -3.19225        2.65167        2.02598
H         -2.47909        1.24806        1.55630
H          0.35969        1.73358       -0.88479
H         -0.58929        1.32962        0.39010
C         -1.46969        2.81905       -0.73637
C         -2.78326        2.57439        0.00755
N         -0.61289        1.61836       -0.59596
N         -2.49969        2.25575        1.40449
