26
2msa2a_69.log	Energy: -904633.9634097
S          2.16689       -0.14194        0.02156
O          1.35828       -0.51065        1.17349
O          3.16616       -1.09386       -0.46398
O          2.89595        1.23523        0.32417
H          3.91528        1.11051        0.28034
C          1.08792        0.31351       -1.31002
H          0.49232       -0.56421       -1.56792
H          0.42522        1.10452       -0.95833
H          1.69927        0.64221       -2.14995
S         -2.45677       -0.62736       -0.12391
O         -1.76625       -1.28255       -1.22072
O         -3.91794       -0.66755       -0.07420
O         -2.00228        0.89599       -0.09077
H         -2.81831        1.50990        0.03208
C         -1.80360       -1.24949        1.40564
H         -2.03169       -2.31577        1.43744
H         -0.72436       -1.08024        1.41156
H         -2.29181       -0.72638        2.22797
N          5.47464        0.69130        0.16354
H          5.35253       -0.24589       -0.21642
H          5.95029        0.61232        1.05645
H          6.06515        1.22480       -0.46546
N         -4.22755        2.28864        0.16085
H         -4.85163        1.48697        0.08578
H         -4.43328        2.92759       -0.60011
H         -4.41774        2.76584        1.03575
