40
2msa1dma1eda_249.log	Energy: -1038020.8715250
S         -0.12282        2.27603       -0.01013
O          1.17811        1.87606        0.63160
O         -1.14584        2.63057        0.98149
O         -0.56037        1.24135       -0.98616
C          0.23855        3.74043       -0.95953
H          1.00023        3.49071       -1.69835
H         -0.68169        4.06460       -1.44581
H          0.59979        4.50393       -0.27039
S          2.81542       -1.08482       -0.19683
O          1.92372       -1.81566       -1.10557
O          2.59737       -1.29683        1.22979
O          2.82763        0.43789       -0.54255
H          2.10478        1.01347       -0.03912
C          4.48873       -1.50422       -0.61955
H          4.60537       -2.57332       -0.44037
H          4.64762       -1.26971       -1.67174
H          5.15647       -0.92709        0.01912
N         -3.47438       -1.30997       -0.66340
C         -4.48973       -2.34926       -0.75553
C         -3.65232       -0.24025       -1.64342
H         -3.46021       -0.89676        0.27436
H         -4.40710       -2.86024       -1.72045
H         -4.33537       -3.08962        0.03448
H         -5.51410       -1.95401       -0.66789
H         -3.53508       -0.64739       -2.65344
H         -4.64425        0.23242       -1.57710
H         -2.88423        0.52320       -1.48950
H         -1.35137       -2.58175        1.43638
H          0.35760       -2.06759        1.47500
H         -0.93146       -0.91875        3.20012
H         -0.24586        0.20694        2.04579
H         -2.92062       -0.02742        2.72817
H         -2.25289        0.96166        1.61167
H         -0.03909       -1.88620       -0.72073
H         -1.73881       -1.56289       -0.53055
C         -0.66521       -1.74657        1.26815
C         -1.01381       -0.56519        2.16664
N         -0.75396       -1.39156       -0.17803
N         -2.34742       -0.01440        1.89339
H         -0.58319       -0.37855       -0.36128
