44
2msa2tma_02.log	Energy: -1052616.4600159
S         -1.50431        1.62992       -0.74131
O         -1.14200        3.05359       -0.65345
O         -2.94930        1.32326       -0.69168
O         -0.75451        0.81531        0.29270
H         -1.49944       -0.58969        0.60917
C         -0.90693        1.02458       -2.31161
H         -1.43644        1.56046       -3.10031
H          0.16860        1.19344       -2.36196
H         -1.09369       -0.04917       -2.36027
S          1.47331       -1.58059       -0.61626
O          0.15916       -2.07489       -1.07763
O          1.62732       -1.59280        0.86178
O          1.85511       -0.25720       -1.18997
H          1.61145        0.85641        0.21905
C          2.67832       -2.73650       -1.26037
H          2.46360       -3.72122       -0.84415
H          2.58840       -2.75194       -2.34685
H          3.67324       -2.40413       -0.96194
N          2.06038        1.51296        0.89747
C          1.37626        1.37973        2.20682
H          0.34318        1.69721        2.08052
H          1.40516        0.32564        2.48469
H          1.90160        1.99737        2.93962
C          3.47720        1.08472        0.98616
H          3.49552        0.05703        1.34961
H          3.91436        1.12302       -0.01088
H          4.00954        1.75355        1.66651
C          1.92326        2.87791        0.32970
H          2.42177        2.89561       -0.64026
H          0.86235        3.10309        0.19590
H          2.39698        3.59154        1.00818
N         -2.18544       -1.33691        0.93121
C         -1.43653       -2.39027        1.65498
H         -0.72995       -2.84426        0.96273
H         -0.88220       -1.92923        2.47254
H         -2.14703       -3.12530        2.04287
C         -3.14651       -0.62951        1.81174
H         -2.60375       -0.22581        2.66735
H         -3.58786        0.18862        1.24079
H         -3.90857       -1.33566        2.15098
C         -2.85567       -1.87090       -0.28241
H         -3.34571       -1.03605       -0.78550
H         -2.08767       -2.30224       -0.92371
H         -3.58475       -2.62660        0.02175
