35
2msa1a1tma_05.log	Energy: -978636.0026104
S          2.86549       -0.32864        0.04962
O          2.05803       -0.79051        1.20684
O          2.96945        1.13513       -0.07598
O          2.38941       -0.99166       -1.21463
C          4.52675       -0.93449        0.30498
H          4.91601       -0.47759        1.21522
H          4.49039       -2.01944        0.40557
H          5.12917       -0.64629       -0.55684
S         -2.69207       -0.67024        0.05633
O         -2.17657       -1.32889       -1.17957
O         -2.92533        0.79257       -0.13785
O         -1.84527       -0.96440        1.23009
C         -4.30745       -1.36216        0.35418
H         -4.93210       -1.15400       -0.51448
H         -4.19353       -2.43645        0.49982
H         -4.71891       -0.89397        1.24841
N          0.24957       -2.36486       -0.38353
H          0.32968       -3.37694       -0.37598
H          1.08507       -1.91819       -0.85978
H         -0.65695       -2.06519       -0.81010
H          0.27010       -2.00558        0.57769
N         -0.62457        2.16249       -0.05047
C          0.06133        1.58263       -1.23635
H          0.10698        0.50184       -1.11753
H         -0.52304        1.82176       -2.12529
H          1.07973        1.96778       -1.29540
C         -0.83354        3.61843       -0.20493
H         -1.40059        3.80179       -1.11823
H         -1.39231        3.99115        0.65404
H          0.13784        4.11388       -0.26211
C          0.08381        1.83493        1.21820
H         -0.46731        2.28657        2.04390
H          0.10925        0.75244        1.34090
H          1.10727        2.20811        1.16114
H         -1.56954        1.69304       -0.01572
