42
2msa2eda_57.log	Energy: -1072768.1250448
S          3.02382       -0.51075        0.21832
O          3.67457        0.64939       -0.40407
O          2.58000       -1.56258       -0.74220
O          1.88984       -0.13187        1.12507
C          4.23649       -1.29352        1.26823
H          5.06590       -1.61472        0.63761
H          4.57413       -0.56200        2.00249
H          3.77154       -2.14844        1.75911
S         -2.45321        0.69018        0.63446
O         -2.89292        0.12881       -0.65772
O         -1.99285        2.10729        0.53159
O         -1.43559       -0.15529        1.31916
C         -3.88120        0.72905        1.70278
H         -4.63272        1.36642        1.23652
H         -4.25480       -0.28951        1.81201
H         -3.57733        1.13343        2.66828
H          1.17891        3.89727       -0.52828
H          2.41419        2.59194       -0.42778
H          1.43230        2.26699       -2.52022
H          0.65087        1.06770       -1.50355
H         -0.84644        2.45467       -2.97385
H         -1.27181        2.57529       -1.40021
H          1.02970        2.86369        1.58685
H         -0.30194        2.28467        0.75346
C          1.34832        2.81976       -0.47902
C          0.72224        2.15232       -1.69680
N          0.74360        2.30206        0.78804
N         -0.53435        2.78772       -2.06914
H          1.09380        1.32238        0.95782
H         -0.11406       -3.84946       -0.83213
H         -0.26927       -3.34156        0.86942
H         -2.44698       -4.21599       -0.16890
H         -2.56093       -2.58526        0.50106
H         -3.04921       -3.30070       -2.15304
H         -2.96996       -1.76639       -1.52567
H          0.91514       -1.72581       -0.64088
H         -0.59479       -1.54599       -1.40988
C         -0.59119       -3.13844       -0.15366
C         -2.11447       -3.18199       -0.30201
N         -0.12618       -1.78409       -0.52763
N         -2.48863       -2.65759       -1.61226
H         -0.43267       -1.09522        0.19052
