41
2msa1dma1tma_106.log	Energy: -1027938.5547983
S          0.72307        1.89470       -0.25910
O          0.80719        2.04608        1.19220
O         -0.60095        1.38485       -0.74835
O          1.81309        1.05826       -0.85581
C          0.91647        3.51025       -0.99013
H          1.89720        3.89302       -0.70673
H          0.83394        3.41292       -2.07243
H          0.12791        4.15269       -0.59728
S         -3.15620       -0.45022        0.40905
O         -2.42649       -1.10773        1.48637
O         -3.00595       -1.00987       -0.93215
O         -2.85308        1.09727        0.39061
H         -1.92661        1.27502       -0.00068
C         -4.88092       -0.38480        0.83096
H         -5.22741       -1.41654        0.89750
H         -4.98177        0.11780        1.79246
H         -5.41019        0.15257        0.04482
N          3.59298       -1.29466        1.39403
C          2.82490       -0.58130        2.41405
C          4.47083       -0.39594        0.64907
H          4.15574       -2.00844        1.84607
H          2.16630        0.15062        1.93737
H          2.20420       -1.28766        2.97357
H          3.46302       -0.03726        3.12966
H          3.85555        0.31029        0.08373
H          5.15001        0.18316        1.29689
H          5.07896       -0.97232       -0.05611
N          1.02189       -1.47900       -1.21472
C          2.23501       -2.21762       -1.63383
H          2.65378       -1.73594       -2.51859
H          2.94667       -2.18361       -0.80643
H          1.96428       -3.25113       -1.86352
C          0.47325       -2.01546        0.05817
H          1.28933       -2.05332        0.78000
H         -0.32201       -1.36094        0.41265
H          0.06661       -3.01271       -0.12416
C         -0.00703       -1.42448       -2.28298
H         -0.86582       -0.86155       -1.91847
H          0.42425       -0.93037       -3.15445
H         -0.30900       -2.44389       -2.53366
H          1.32546       -0.48315       -1.03145
