34
2msa1a1eda_132.log	Energy: -988705.5697879
S          2.44447       -0.50607        0.04212
O          2.37780       -1.53081        1.11123
O          2.65909        0.86991        0.50862
O          1.23324       -0.60611       -0.85899
H          0.37500        0.61165       -1.08848
C          3.83275       -0.94836       -0.98523
H          4.72837       -0.91712       -0.36426
H          3.67004       -1.95229       -1.37710
H          3.89949       -0.22061       -1.79409
S         -0.89153        2.09297       -0.06486
O         -2.02132        2.87544       -0.52117
O         -0.27734        1.37184       -1.32015
O         -1.14169        1.09695        0.99146
H         -0.55592       -0.52222        1.59874
C          0.40991        3.16132        0.49520
H          0.61356        3.87929       -0.29930
H          0.04494        3.66664        1.39013
H          1.28615        2.54321        0.70760
N         -0.32372       -1.51510        1.74727
H          0.70759       -1.61887        1.77421
H         -0.69848       -2.02779        0.88801
H         -0.79161       -1.85049        2.58250
H         -1.81941       -0.68032       -1.26002
H         -2.42015       -1.98725       -2.27188
H         -4.22885       -1.29343       -0.91922
H         -3.72275       -2.86583       -0.29245
H         -2.95284       -0.30221        0.92254
H         -4.04667       -1.36292        1.51645
H         -1.22552       -3.52338       -0.88890
H         -0.18372       -2.26645       -1.14129
C         -2.16398       -1.71872       -1.23799
C         -3.42185       -1.81405       -0.38078
N         -1.06580       -2.53732       -0.70819
N         -3.19699       -1.29031        0.96740
