40
2msa1dma1eda_293.log	Energy: -1038019.6675728
S          0.13452        2.27769       -0.41916
O          0.83085        3.54104       -0.19488
O         -0.62226        1.82265        0.81064
O          1.00463        1.16159       -0.89367
H          1.29366        0.21751        0.57324
C         -1.09593        2.52404       -1.68433
H         -1.78345        3.29578       -1.33659
H         -0.57992        2.85126       -2.58748
H         -1.60859        1.57478       -1.84764
S         -2.50369       -1.04062        0.06793
O         -1.85135       -2.21028        0.64774
O         -2.06471       -0.61980       -1.26127
O         -2.45102        0.17136        1.05970
H         -1.66897        0.84745        0.87268
C         -4.25661       -1.33864        0.04200
H         -4.42408       -2.20389       -0.60005
H         -4.58413       -1.54570        1.06053
H         -4.75219       -0.45495       -0.35841
N          1.75464       -0.15392        1.42834
C          0.76416       -0.82806        2.28992
C          2.45691        0.97073        2.07630
H          2.44912       -0.83873        1.03927
H          0.02944       -0.09309        2.62072
H          0.27088       -1.60329        1.70402
H          1.27561       -1.26190        3.15196
H          1.72405        1.72594        2.36377
H          2.99481        0.60742        2.95429
H          3.15258        1.40782        1.35926
H          2.30750       -3.34700       -1.44594
H          1.87525       -2.22648       -2.73567
H          4.09144       -1.70464       -2.08437
H          3.05519       -0.38788       -1.50343
H          3.90153       -2.60555        0.23180
H          4.66591       -1.16845        0.15940
H          0.51953       -1.04446       -1.18451
H          0.21168       -2.60109       -0.81462
C          2.07310       -2.29449       -1.65466
C          3.30648       -1.44494       -1.36068
N          0.94291       -1.89908       -0.82720
N          3.76419       -1.61819        0.03171
