37
2msa1ma1eda_48.log	Energy: -1013373.3066726
S          2.37826        0.73875        0.43824
O          2.47105       -0.67358        0.91307
O          1.43443        1.56321        1.22261
O          2.11379        0.80778       -1.02876
H          0.41789        1.89240       -1.24734
C          4.00102        1.43305        0.70065
H          4.22357        1.37366        1.76614
H          4.72095        0.85316        0.12304
H          3.98527        2.47120        0.36814
S         -1.78849       -1.43935        0.43896
O         -3.21411       -1.09126        0.45740
O         -1.07432       -0.75977       -0.73078
O         -1.43553       -2.86945        0.44554
H          0.71196       -3.12336       -0.44626
C         -1.05288       -0.71847        1.89967
H         -1.26226        0.35251        1.90347
H         -1.50841       -1.20253        2.76456
H          0.02515       -0.88757        1.88220
N          1.14616       -2.28114       -0.82927
H          0.33656       -1.63499       -0.99815
C          1.95603       -2.50842       -2.04045
H          2.37016       -1.54690       -2.34522
H          2.76433       -3.20490       -1.81671
H          1.32475       -2.91401       -2.83121
H          1.70945       -1.79960       -0.08748
H         -1.45900        3.66853       -1.13906
H         -1.51405        2.52345       -2.49498
H         -3.73749        2.69718       -1.33245
H         -3.06927        1.06299       -1.32531
H         -3.44006        2.75222        0.97106
H         -3.38420        1.10413        0.82617
H         -0.33675        2.07282        0.18974
H         -0.74553        0.80324       -0.77860
C         -1.59482        2.61808       -1.40938
C         -2.93679        2.07039       -0.91903
N         -0.50162        1.83293       -0.79345
N         -2.95416        1.97859        0.53579
