35
2msa1ma1dma_276.log	Energy: -978616.2777852
S          3.05672       -0.03208        0.16724
O          2.47267       -1.28505       -0.41176
O          2.41122        0.37921        1.42066
O          3.09952        1.06660       -0.84765
H          1.65755        1.79754       -0.92704
C          4.75723       -0.43396        0.50790
H          4.76937       -1.23770        1.24402
H          5.22825       -0.75153       -0.42207
H          5.23972        0.45977        0.90361
S         -0.99962       -1.06290       -0.18488
O         -0.75373       -0.19994       -1.36068
O         -1.23686       -0.35207        1.06493
O          0.14413       -2.11373       -0.05306
H          1.10556       -1.71913       -0.16591
C         -2.37568       -2.11168       -0.54848
H         -3.24973       -1.44988       -0.60575
H         -2.18177       -2.61667       -1.49425
H         -2.47488       -2.82818        0.26730
N          0.64618        2.12375       -0.89548
H          0.49773        2.82754       -1.61451
C          0.29919        2.62139        0.45980
H         -0.76751        2.84078        0.50427
H          0.55396        1.83900        1.17470
H          0.88440        3.51612        0.67154
H          0.07397        1.28238       -1.12937
N         -4.56955        0.32619       -0.13481
C         -3.83060        1.54418       -0.43662
C         -4.72834        0.11216        1.29850
H         -5.48017        0.36067       -0.58004
H         -2.82551        1.45295       -0.01326
H         -3.73411        1.66129       -1.51941
H         -4.29659        2.45405       -0.01986
H         -3.74026       -0.03605        1.74572
H         -5.21654        0.95553        1.81578
H         -5.31998       -0.79101        1.47262
