42
2msa2eda_397.log	Energy: -1072753.4836111
S         -1.64515       -1.70136       -0.62725
O         -0.53956       -0.73806       -0.85179
O         -2.95002       -1.22256       -1.11003
O         -1.68100       -2.10896        0.82415
H         -1.75912       -0.61936        1.64176
C         -1.24277       -3.18585       -1.52730
H         -1.20537       -2.93256       -2.58712
H         -0.27330       -3.54640       -1.18240
H         -2.02291       -3.92267       -1.33560
S          3.02595        0.26939       -0.41805
O          4.45439        0.47957       -0.55458
O          2.23122        1.27354        0.29785
O          2.79266       -1.13688        0.25567
H          1.98890       -1.16320        0.91740
C          2.32071        0.05151       -2.03624
H          2.42247        1.00093       -2.56403
H          2.88744       -0.72901       -2.54432
H          1.27211       -0.22731       -1.91918
H         -0.93460        3.09243        0.67566
H         -0.96682        4.23602       -0.66583
H         -3.21174        3.69936        0.02813
H         -2.94370        3.09190       -1.61739
H         -4.06591        1.57646        0.05795
H         -2.87153        0.89093       -0.76988
H          0.59590        2.42947       -1.05202
H         -0.60400        1.34244       -1.11693
C         -1.17674        3.19417       -0.39880
C         -2.67002        2.95470       -0.56398
N         -0.39228        2.32824       -1.26369
N         -3.05912        1.61764       -0.07444
H          0.15645       -0.39533        3.79822
H          1.57217        0.33980        3.03040
H         -0.20144        1.78189        2.48992
H          0.12276        0.86206        1.01285
H         -2.12369        0.44532        2.88947
H         -2.22298        0.96050        1.25626
H          1.36743       -2.08139        2.68240
H          0.08872       -1.82588        1.68058
C          0.62843       -0.17425        2.82860
C         -0.24169        0.78912        2.03765
N          0.93308       -1.39609        2.07069
N         -1.67156        0.37243        1.98011
