32
2msa1a1dma_153.log	Energy: -953954.4437879
S         -3.14651       -0.21153        0.26649
O         -4.58512       -0.11803        0.07959
O         -2.35265        0.32010       -0.91090
O         -2.63825       -1.59035        0.57633
H         -1.62968       -2.01827       -0.48862
C         -2.68935        0.79770        1.66229
H         -3.01515        1.81860        1.45958
H         -3.20866        0.39947        2.53437
H         -1.60746        0.74862        1.79746
S          0.88429        0.91852       -0.31158
O          1.10820       -0.32580       -1.08289
O          0.69020        0.74238        1.12153
O         -0.30104        1.71830       -0.94604
H         -1.19407        1.17354       -0.89815
C          2.23698        2.01180       -0.62577
H          3.12786        1.48440       -0.26269
H          2.29089        2.18814       -1.69981
H          2.05389        2.93734       -0.08041
N         -0.96835       -2.15791       -1.33622
H         -0.68124       -3.12660       -1.44193
H         -0.14361       -1.53252       -1.22181
H         -1.48486       -1.84588       -2.15687
N          4.07841       -0.53891        0.25338
C          3.80432       -0.85458        1.64910
C          5.41689       -0.92625       -0.16201
H          3.38672       -0.99177       -0.33666
H          4.45104       -0.24692        2.29128
H          2.76606       -0.60721        1.88329
H          3.98286       -1.91485        1.89850
H          6.15391       -0.33514        0.39209
H          5.64108       -1.99243        0.01604
H          5.55178       -0.71745       -1.22691
