32
2msa2ma_248.log	Energy: -953948.2821156
S          1.24034       -0.97199        0.27782
O          0.25516       -0.46046        1.25336
O          2.50393       -1.43213        0.93007
O          1.55583        0.03089       -0.79657
H          3.07740        0.68352       -0.46199
C          0.51534       -2.37486       -0.53198
H          0.29722       -3.12061        0.23311
H         -0.40077       -2.03069       -1.01705
H          1.23304       -2.75939       -1.25659
S         -3.03598       -0.22010       -0.20210
O         -4.31681       -0.89786       -0.18389
O         -2.04757       -0.56885       -1.22064
O         -2.38108       -0.42730        1.23485
H         -1.38513       -0.41174        1.18769
C         -3.30301        1.53513       -0.25586
H         -3.79172        1.74946       -1.20768
H         -3.95584        1.79953        0.57632
H         -2.32762        2.03286       -0.19358
N         -0.14392        2.56966       -0.42666
H          0.16109        1.67620       -0.80696
C          0.65286        2.90552        0.74558
H          1.73163        3.04245        0.54454
H          0.28338        3.83202        1.19574
H          0.54719        2.10595        1.48292
H         -0.03743        3.26770       -1.15447
N          3.99493        0.57504        0.04911
H          4.18758        1.40175        0.60988
C          5.10069        0.21724       -0.86410
H          6.00489        0.01686       -0.28994
H          4.80604       -0.67931       -1.40852
H          5.27553        1.03133       -1.56701
H          3.71579       -0.22990        0.66578
