32
2msa2ma_26.log	Energy: -953967.0986522
S         -2.02917       -1.05137       -0.04585
O         -0.87199       -1.67717       -0.78570
O         -2.67581        0.02234       -0.81819
O         -1.64168       -0.64715        1.32979
C         -3.19561       -2.38305        0.12466
H         -3.46970       -2.72125       -0.87451
H         -2.71856       -3.18322        0.69003
H         -4.06526       -1.99422        0.65443
S          2.36666       -0.66738        0.04128
O          2.24429       -1.96325        0.68264
O          2.49468        0.51849        0.90438
O          1.19978       -0.41375       -0.96831
H          0.30528       -1.02106       -0.84252
C          3.77745       -0.66984       -1.04213
H          4.66162       -0.79649       -0.41669
H          3.67259       -1.50212       -1.73770
H          3.81320        0.28257       -1.57038
N         -0.06335        1.61205        1.42261
H         -0.65882        0.76099        1.51891
H          0.92045        1.29916        1.43712
C         -0.36629        2.61941        2.45308
H          0.26355        3.49696        2.30348
H         -1.41527        2.90556        2.37169
H         -0.18192        2.20232        3.44335
H         -0.25325        1.96664        0.43049
N         -0.60337        2.15803       -1.24415
H          0.15865        1.64946       -1.68658
C         -0.82751        3.44895       -1.89655
H         -1.04555        3.36419       -2.96847
H         -1.67149        3.95247       -1.41809
H          0.05488        4.08340       -1.77471
H         -1.42576        1.55519       -1.32718
