32
2msa2ma_137.log	Energy: -953960.7179413
S         -2.18285       -0.80440       -0.01038
O         -3.39806       -1.43028        0.46248
O         -1.09268       -0.92741        1.11465
O         -2.26217        0.60266       -0.44742
H         -1.29081        2.01181       -0.48393
C         -1.50375       -1.74603       -1.35454
H         -1.37878       -2.77262       -1.00873
H         -2.22167       -1.70097       -2.17428
H         -0.54592       -1.29697       -1.62651
S          1.66724        0.79403       -0.23766
O          1.78490        2.20402       -0.70980
O          1.26668       -0.15699       -1.28444
O          0.72861        0.76276        0.94757
H         -0.32888       -0.22814        1.01798
C          3.25024        0.28872        0.38362
H          3.95649        0.30724       -0.44695
H          3.55058        0.98638        1.16540
H          3.11371       -0.72529        0.77610
N         -0.80950        2.93460       -0.42018
H          0.21145        2.76612       -0.63349
C         -0.96088        3.47475        0.95250
H         -0.46148        4.44106        1.01803
H         -2.02023        3.57507        1.18697
H         -0.48792        2.76372        1.62885
H         -1.20749        3.55326       -1.12320
N          1.77946       -2.67166        1.05845
H          1.90551       -3.35110        1.80080
C          1.86097       -3.31322       -0.25302
H          1.10941       -4.09945       -0.42496
H          1.74633       -2.54665       -1.02372
H          2.85039       -3.76369       -0.37612
H          0.86160       -2.25788        1.19303
