41
2msa1dma1tma_122.log	Energy: -1027938.8238242
S         -1.46090       -1.62131       -0.69653
O         -2.48039       -1.90580        0.32291
O         -0.32079       -2.58548       -0.70551
O         -0.95205       -0.21387       -0.61480
H         -0.96510        0.28470        0.91595
C         -2.22931       -1.76063       -2.29737
H         -2.58371       -2.78525       -2.41172
H         -3.06143       -1.05753       -2.33833
H         -1.48279       -1.52047       -3.05443
S          2.38857       -0.46449        0.11812
O          1.81882       -0.71286        1.44483
O          2.13914        0.84805       -0.46269
O          2.00846       -1.62033       -0.86780
H          1.04441       -1.97749       -0.76636
C          4.14619       -0.72182        0.18895
H          4.55468        0.05056        0.84128
H          4.33404       -1.71493        0.59544
H          4.54821       -0.62494       -0.81933
N         -0.15976        2.56514       -1.74756
C         -1.53948        2.87561       -1.46475
C          0.75722        3.62814       -1.40362
H          0.12258        1.68308       -1.33254
H         -1.90800        3.64012       -2.16007
H         -2.14857        1.97608       -1.58399
H         -1.70598        3.27755       -0.44082
H          0.57776        4.49920       -2.04584
H          0.66487        3.97355       -0.35314
H          1.78355        3.28996       -1.55755
N         -1.15807        0.68263        1.87771
C         -0.20223        1.79669        2.08356
H          0.80618        1.38495        2.06855
H         -0.31421        2.51000        1.26535
H         -0.41317        2.27972        3.04080
C         -2.56754        1.13928        1.83274
H         -2.66103        1.91194        1.06964
H         -3.18944        0.28316        1.56745
H         -2.84885        1.53724        2.81053
C         -0.97690       -0.41247        2.86606
H         -1.66139       -1.21949        2.60180
H          0.05094       -0.76545        2.79774
H         -1.19464       -0.02434        3.86419
