40
2msa1dma1eda_423.log	Energy: -1038012.3858211
S         -2.49153        0.39066        0.37582
O         -3.74068       -0.34254        0.14675
O         -1.90326        0.93207       -0.89564
O         -1.47578       -0.42175        1.12247
H         -1.47138       -1.91116        0.62120
C         -2.81050        1.80687        1.40169
H         -3.51922        2.44648        0.87517
H         -3.23079        1.45550        2.34403
H         -1.85699        2.31468        1.55638
S          1.31531        2.13188       -0.30529
O          2.67494        1.64464       -0.11952
O          0.51196        2.47715        0.85908
O          0.56649        1.06461       -1.18700
H         -0.45925        1.04532       -1.02045
C          1.37466        3.55258       -1.37895
H          1.90822        4.34114       -0.84704
H          1.90346        3.27478       -2.29040
H          0.35110        3.85887       -1.59627
N          2.71930       -1.38282        0.61104
C          4.01670       -1.84300        1.08706
C          1.78244       -1.14105        1.70449
H          2.84346       -0.50381        0.11290
H          3.90678       -2.82692        1.55785
H          4.70665       -1.94533        0.24491
H          4.46944       -1.16311        1.82719
H          1.54566       -2.09244        2.19694
H          2.18023       -0.45191        2.46563
H          0.85390       -0.71323        1.31783
H         -1.62168       -3.55499       -1.85611
H         -2.00050       -1.82183       -1.64778
H          0.33290       -2.27157       -2.65380
H          0.35069       -1.30124       -1.18646
H          1.31865       -4.00287       -1.44551
H          1.75997       -2.76430       -0.41131
H         -2.34254       -3.34018        0.36756
H         -0.63928       -3.39788        0.38133
C         -1.33564       -2.63237       -1.34380
C          0.14287       -2.30255       -1.57539
N         -1.48383       -2.85574        0.11988
N          0.96990       -3.26300       -0.84833
