42
2msa2eda_459.log	Energy: -1072745.5022114
S         -0.65058       -1.45531        0.34279
O         -1.71434       -2.41862        0.06291
O         -0.61816       -0.32793       -0.67192
O          0.71705       -2.04742        0.43342
H          1.75454       -1.20269       -0.52110
C         -0.98557       -0.68629        1.91136
H         -1.99736       -0.27099        1.85477
H         -0.93680       -1.46761        2.67098
H         -0.22844        0.07923        2.09213
S          0.99814        2.40454        0.07335
O          1.81831        2.07979       -1.10602
O          1.45745        1.82325        1.33346
O         -0.49523        2.06514       -0.19217
H         -0.60955        1.01505       -0.38074
C          0.90472        4.16903        0.22389
H          1.91702        4.52807        0.41078
H          0.51355        4.57375       -0.70895
H          0.24871        4.40459        1.06150
H          4.32789        0.20347       -0.12917
H          3.06540       -0.12985        1.07181
H          4.93130       -1.82402        1.22712
H          3.39385       -2.57172        0.77382
H          5.65545       -2.07965       -1.01275
H          4.73002       -3.42085       -0.85798
H          2.23529        0.28299       -1.19802
H          3.00083       -1.16459       -1.66596
C          3.57374       -0.52119        0.18952
C          4.18295       -1.89731        0.42806
N          2.57007       -0.64599       -0.89489
N          4.71233       -2.40875       -0.83803
H         -5.84509       -0.47263       -0.26231
H         -5.27101        0.99394        0.56269
H         -4.60729        1.04869       -1.74476
H         -3.16089        0.88782       -0.73103
H         -3.32782       -0.60077       -2.73607
H         -3.07532       -1.42085       -1.36286
H         -4.83770       -0.95032        1.89462
H         -3.87687       -1.58758        0.74178
C         -4.94934        0.04970        0.10746
C         -4.06045        0.36132       -1.08942
N         -4.21980       -0.70969        1.12663
N         -3.75942       -0.84791       -1.85247
