42
2msa2eda_275.log	Energy: -1072755.8793920
S          0.02380        2.31646       -0.08840
O          0.70466        1.28969       -0.93150
O          0.90269        2.99118        0.86580
O         -1.18870        1.72123        0.57868
C         -0.60488        3.53895       -1.22495
H          0.24459        3.99315       -1.73550
H         -1.26497        3.04309       -1.93729
H         -1.14796        4.28566       -0.64524
S         -3.00550       -1.08931       -0.13863
O         -3.12092       -1.24182        1.30361
O         -1.89958       -1.81536       -0.78385
O         -2.97261        0.41799       -0.55587
H         -2.20619        0.96153       -0.08780
C         -4.51525       -1.58234       -0.93105
H         -4.64441       -2.64643       -0.73167
H         -5.33209       -1.00557       -0.49847
H         -4.42076       -1.39695       -2.00043
H         -0.36656       -0.16778        1.93739
H         -0.12680       -1.89841        2.22994
H          1.37197       -0.52619        3.65213
H          2.27794       -1.58766        2.59440
H          2.81411        0.29021        1.20555
H          1.91010        1.30309        2.12865
H         -0.23736       -1.57043       -0.06971
H          0.77341       -0.26809       -0.06854
C          0.34696       -0.99031        1.84841
C          1.64522       -0.69029        2.60403
N          0.60176       -1.18502        0.39288
N          2.43388        0.43170        2.13960
H          1.43319       -1.79445        0.21446
H          4.72351       -2.21944       -1.54957
H          3.22722       -2.95105       -2.14216
H          3.52101       -0.61217       -2.93640
H          2.03678       -0.83481       -2.02201
H          4.40695        0.57769       -1.09261
H          2.81139        0.99247       -1.01388
H          3.41325       -3.40486        0.17046
H          3.64582       -1.82389        0.52574
C          3.62625       -2.18217       -1.47291
C          3.12735       -0.81197       -1.92915
N          3.16439       -2.46057       -0.10576
N          3.46925        0.21851       -0.95188
