42
2msa2eda_204.log	Energy: -1072755.5077997
S          0.52453       -2.22058       -0.63105
O         -0.20914       -2.92643        0.42530
O          1.95997       -2.00928       -0.40242
O         -0.17095       -0.89676       -0.95047
C          0.36032       -3.17385       -2.13110
H          0.84812       -4.13479       -1.96473
H         -0.70114       -3.31507       -2.33599
H          0.84844       -2.63247       -2.94193
S          1.90426        1.82426       -0.44149
O          1.15396        1.55129        0.79021
O          2.20067        3.19910       -0.78583
O          1.12100        1.18880       -1.65867
H          0.65838        0.32291       -1.38870
C          3.40604        0.87668       -0.38570
H          3.99718        1.25680        0.44852
H          3.13792       -0.17386       -0.24661
H          3.93003        1.03055       -1.32909
H         -1.83221       -0.55167        3.39039
H         -1.41267       -1.84700        2.21698
H          0.35725       -1.54352        3.96390
H          0.95923       -1.23472        2.34086
H          1.04488        0.54656        4.46298
H          1.30044        0.94412        2.88245
H         -2.25940        0.34846        1.24405
H         -0.76007        0.97050        1.74424
C         -1.14078       -0.86421        2.60408
C          0.29488       -0.84778        3.12210
N         -1.26047        0.11134        1.49139
N          0.65437        0.50903        3.53193
H         -0.81071       -0.25487        0.62988
H         -4.61177        2.03041       -1.01422
H         -3.42400        2.76521        0.07811
H         -2.48339        2.26729       -2.19518
H         -1.60581        1.47548       -0.90581
H         -3.12873        0.20781       -2.96645
H         -1.96296       -0.41223       -1.97442
H         -4.63826        0.91727        1.12035
H         -4.03457       -0.09232       -0.03060
C         -3.68255        1.84500       -0.45646
C         -2.56417        1.48088       -1.43526
N         -3.84300        0.75031        0.51258
N         -2.80281        0.15733       -2.01010
