37
2msa1ma1eda_21.log	Energy: -1013375.1400419
S         -2.71993        0.09318       -0.27676
O         -2.93531       -1.22745       -0.88728
O         -2.20656        1.13438       -1.20873
O         -1.86583        0.01013        0.95488
C         -4.31076        0.68775        0.27380
H         -4.17328        1.65922        0.74875
H         -4.95783        0.77387       -0.59946
H         -4.71665       -0.03426        0.98267
S          2.42208       -1.10638       -0.14032
O          2.55386        0.37724       -0.09225
O          1.42581       -1.53341       -1.15941
O          2.16885       -1.71510        1.18848
C          4.00803       -1.71362       -0.68697
H          4.21912       -1.27950       -1.66426
H          4.75815       -1.40895        0.04292
H          3.95196       -2.80036       -0.75201
N         -0.50799       -2.35341        0.65227
H         -1.03562       -1.47579        0.87446
H         -0.10728       -2.20631       -0.28998
C         -1.37675       -3.54281        0.72963
H         -0.81144       -4.42726        0.43500
H         -1.73656       -3.65886        1.75221
H         -2.21917       -3.38351        0.05703
H          0.33176       -2.38688        1.24819
H         -0.70040        3.08373        0.68716
H          0.07081        1.65224        1.38271
H          1.33820        3.74262        1.99991
H          2.31407        2.64371        1.01067
H          1.07253        5.13299        0.09682
H          2.60027        4.59409       -0.13673
H         -0.55560        1.50510       -1.00159
H          0.66101        2.66027       -1.29594
C          0.20920        2.47668        0.68320
C          1.44576        3.30857        0.99746
N          0.35587        1.90365       -0.67627
N          1.63344        4.30309       -0.06215
H          1.11288        1.18596       -0.65037
