38
2msa1ma1tma_98.log	Energy: -1003278.7199709
S         -2.39708        0.48982       -0.63995
O         -3.52150        1.29409       -1.07066
O         -1.27660        1.15444        0.03115
O         -1.86652       -0.29549       -1.90158
H         -1.09268       -0.88599       -1.62926
C         -2.95334       -0.82202        0.42743
H         -3.33419       -0.36543        1.34163
H         -3.74119       -1.36819       -0.09122
H         -2.09442       -1.46358        0.63575
S          1.33398       -1.34813       -0.74706
O         -0.05180       -1.86868       -0.93794
O          1.73991       -1.25968        0.67050
O          1.54266       -0.06311       -1.47386
H          1.30690        1.20143       -0.34135
C          2.40309       -2.54422       -1.52288
H          2.24951       -3.50243       -1.02619
H          2.13828       -2.60970       -2.57817
H          3.43341       -2.20970       -1.40088
N         -0.33778       -2.02350        2.88799
H          0.34610       -1.91549        2.14256
C         -0.79553       -0.72693        3.36420
H         -1.18454       -0.05238        2.58383
H         -1.57869       -0.86388        4.11667
H          0.03508       -0.21395        3.86124
H         -1.10569       -2.57698        2.52636
N          1.62255        2.00522        0.25672
C          1.21022        1.74725        1.66114
H          0.12375        1.77142        1.71133
H          1.56284        0.75218        1.93372
H          1.65011        2.51536        2.30176
C          3.10001        2.00565        0.12474
H          3.47593        1.05554        0.50467
H          3.35683        2.10079       -0.92991
H          3.51127        2.84004        0.69711
C          1.00876        3.23819       -0.29394
H          1.31538        3.34583       -1.33487
H         -0.07373        3.12891       -0.24036
H          1.34767        4.09715        0.28976
