35
2msa1ma1dma_236.log	Energy: -978616.7570895
S          2.94623       -0.84692       -0.26832
O          3.28104        0.57759       -0.46167
O          2.14199       -1.46019       -1.31489
O          2.30494       -1.05373        1.13957
H          1.42980       -0.46937        1.23529
C          4.46447       -1.73909       -0.05978
H          5.01137       -1.65388       -0.99908
H          5.02089       -1.28703        0.76036
H          4.22136       -2.77992        0.15238
S         -1.01961        0.25067        0.63260
O         -2.12554        0.49229        1.55403
O          0.33714        0.42496        1.28708
O         -1.05367        1.09532       -0.60436
H          0.29775        1.87926       -0.83902
C         -1.09784       -1.44020        0.08497
H         -0.99528       -2.07882        0.96365
H         -2.08391       -1.57621       -0.37073
H         -0.28781       -1.61682       -0.62495
N          1.22142        2.41527       -0.85594
H          1.98711        1.71612       -0.78265
C          1.27037        3.34620        0.29656
H          2.23445        3.85422        0.31955
H          0.46015        4.06959        0.20804
H          1.13192        2.75080        1.19853
H          1.30927        2.90050       -1.74579
N         -4.34973       -0.72065       -0.28124
C         -5.62638       -1.35451       -0.00762
C         -4.43246        0.29041       -1.32291
H         -3.97702       -0.29714        0.56476
H         -5.95808       -1.90866       -0.89335
H         -5.51826       -2.06974        0.81271
H         -6.42632       -0.63955        0.25739
H         -4.67314       -0.18888       -2.27928
H         -5.20353        1.05788       -1.12856
H         -3.46466        0.78858       -1.42285
