32
2msa2ma_148.log	Energy: -953960.0376207
S         -2.73502        0.22426        0.37892
O         -3.92612        0.70908        1.03896
O         -1.75197       -0.30262        1.49176
O         -2.00540        1.15779       -0.50040
H         -0.40781        1.71411       -0.60155
C         -3.11062       -1.22089       -0.58090
H         -3.61351       -1.93040        0.07621
H         -3.77276       -0.90483       -1.38779
H         -2.17299       -1.63086       -0.96587
S          1.06255       -1.32509       -0.53866
O          1.63379       -0.38344       -1.54571
O         -0.02862       -2.16937       -1.02916
O          0.66674       -0.53734        0.69542
H         -0.80592       -0.45599        1.14678
C          2.40204       -2.37499       -0.02201
H          2.78185       -2.88359       -0.90840
H          3.16789       -1.75069        0.44428
H          2.00357       -3.09471        0.69369
N          0.60537        1.94912       -0.67327
H          0.97221        1.92471        0.27800
C          0.85149        3.23608       -1.35165
H          1.92519        3.41767       -1.40254
H          0.44235        3.17938       -2.35965
H          0.36125        4.04133       -0.80482
H          1.05564        1.12679       -1.15635
N          3.38827        0.29730        1.85745
H          2.40122        0.05354        1.86590
C          3.66250        1.33967        0.87946
H          3.15082        2.30308        1.06396
H          4.73565        1.54836        0.85198
H          3.37900        0.97796       -0.11453
H          3.66060        0.58052        2.79109
