35
2msa1ma1dma_101.log	Energy: -978626.3102873
S         -2.53521       -0.41343        0.08718
O         -2.62948        0.75635        0.96671
O         -2.15695       -1.68414        0.76473
O         -1.62447       -0.17939       -1.09274
C         -4.14946       -0.68851       -0.61551
H         -4.83699       -0.90743        0.20179
H         -4.44846        0.22107       -1.13656
H         -4.08900       -1.52949       -1.30608
S          0.82046        2.03074       -0.01662
O          1.95883        2.83978       -0.40280
O          1.10410        0.73605        0.63216
O         -0.05357        1.78368       -1.29542
H         -0.72656        1.01317       -1.17816
C         -0.24845        2.94488        1.06422
H          0.30264        3.12579        1.98769
H         -0.49345        3.88398        0.56798
H         -1.14085        2.33863        1.24268
N          3.48699       -0.85131       -0.52019
H          3.67086       -0.59227       -1.48446
C          4.74848       -1.10904        0.17480
H          5.45896       -0.27126        0.15306
H          4.54152       -1.34080        1.22423
H          5.23812       -1.98308       -0.26473
H          3.01287       -0.05365       -0.10277
N          0.50434       -1.97542        0.20241
C          1.29111       -2.70966        1.21361
C          0.61956       -2.52185       -1.16726
H         -0.50717       -1.94551        0.47581
H          2.33962       -2.68299        0.91463
H          1.16017       -2.22004        2.17881
H          0.92918       -3.73751        1.27008
H          1.66681       -2.46575       -1.46636
H          0.26739       -3.55489       -1.16514
H         -0.00977       -1.91528       -1.81861
H          0.80586       -0.98607        0.20135
