29
2msa1a1ma_89.log	Energy: -929296.2121970
S         -2.78282        0.05724       -0.21705
O         -2.02653       -1.19847       -0.50237
O         -2.33074        1.20191       -1.04896
O         -2.79078        0.39873        1.23100
H         -1.52643        1.71414        1.48123
C         -4.45979       -0.30521       -0.68520
H         -4.46636       -0.55911       -1.74516
H         -4.80457       -1.14481       -0.08190
H         -5.06118        0.58373       -0.49518
S          1.39394       -0.78971        0.20503
O          1.27022        0.43177        1.03156
O          1.56337       -0.57234       -1.22372
O          0.20254       -1.75373        0.50880
H         -0.70134       -1.48245        0.07367
C          2.74138       -1.73388        0.85623
H          3.64511       -1.15675        0.63157
H          2.58460       -1.86544        1.92624
H          2.75595       -2.69235        0.33746
N         -0.78801        2.22106        0.95307
H         -1.16994        2.21001       -0.01306
H          0.07437        1.63036        0.97514
H         -0.62035        3.15895        1.30259
N          4.55656        0.39079       -0.88357
H          5.42931        0.32227       -1.39499
C          4.36347        1.74249       -0.36134
H          4.35544        2.53134       -1.12786
H          3.41147        1.77991        0.17548
H          5.15659        1.97252        0.35620
H          3.80457        0.15071       -1.52416
