42
2msa2eda_361.log	Energy: -1072753.8469579
S          2.06674       -1.33390        0.80594
O          2.22898       -2.15959       -0.39042
O          0.59867       -0.96239        1.04083
O          2.88119       -0.11040        0.88255
C          2.48732       -2.34052        2.21940
H          1.86119       -3.23302        2.20532
H          3.53990       -2.61009        2.12678
H          2.31654       -1.75933        3.12543
S         -2.52320       -0.92519       -0.14250
O         -2.29439       -0.00042       -1.25467
O         -2.75405       -0.32213        1.16638
O         -1.38431       -1.99651       -0.07058
H         -0.51975       -1.61907        0.37487
C         -3.89068       -1.97866       -0.56228
H         -4.76695       -1.33645       -0.65494
H         -3.66946       -2.47024       -1.50924
H         -4.02441       -2.70614        0.23765
H         -0.46916        3.43983       -0.05927
H         -1.22349        1.85263       -0.31410
H         -2.35291        3.07961        1.55039
H         -1.58970        1.59750        2.11280
H         -0.59733        4.31820        2.56134
H         -0.75734        3.09117        3.62993
H          1.29193        1.91347       -0.23073
H          1.09280        2.25368        1.44142
C         -0.65515        2.46025        0.39276
C         -1.38232        2.59813        1.72405
N          0.65732        1.81808        0.62311
N         -0.52168        3.31266        2.67047
H          0.56261        0.80451        0.83291
H          2.66217        0.81855       -3.37668
H          2.84165        0.13725       -1.74442
H          0.93529       -0.88524       -2.93821
H          0.42288       -0.05645       -1.48640
H         -0.02152        0.87583       -4.20359
H         -1.05625        0.76111       -2.93603
H          2.96431        2.55704       -1.72799
H          1.43997        2.63350       -2.35796
C          2.20234        0.75524       -2.37874
C          0.82640        0.10996       -2.48846
N          2.06537        2.08793       -1.76708
N         -0.10325        0.99174       -3.19900
