38
2msa1ma1tma_20.log	Energy: -1003287.7880224
S         -0.23127        2.21301        0.05695
O         -1.16424        3.15423       -0.55227
O         -0.03861        0.97243       -0.80164
O         -0.56891        1.79341        1.44398
H         -0.72457        0.10880        1.51877
C          1.37729        2.97826        0.14459
H          1.66765        3.27350       -0.86439
H          1.28752        3.85431        0.78747
H          2.08363        2.25902        0.56405
S          2.55495       -0.96759       -0.11494
O          1.55391       -1.96469        0.29958
O          3.01660       -0.04749        0.91574
O          2.04856       -0.19343       -1.37359
H          1.17013        0.35500       -1.14390
C          3.93740       -1.83059       -0.81719
H          4.38215       -2.42067       -0.01540
H          3.57492       -2.47327       -1.61861
H          4.64563       -1.09171       -1.19099
N         -0.88067       -0.91901        1.39782
H         -1.63101       -1.01185        0.64534
C         -1.28574       -1.56654        2.65675
H         -1.46043       -2.62923        2.48361
H         -0.50008       -1.44543        3.40286
H         -2.20200       -1.10039        3.02094
H         -0.00559       -1.31965        1.02611
N         -2.86321       -1.08842       -0.56580
C         -3.52332        0.21860       -0.58196
H         -3.97525        0.41499        0.39465
H         -2.79201        1.00247       -0.78820
H         -4.31375        0.26138       -1.34905
C         -2.16304       -1.33268       -1.82736
H         -1.43757       -0.53340       -1.99126
H         -1.62939       -2.28638       -1.77134
H         -2.86398       -1.37078       -2.67746
C         -3.81503       -2.15457       -0.27532
H         -3.29302       -3.11495       -0.22300
H         -4.29863       -1.96801        0.68841
H         -4.60003       -2.22909       -1.04653
