40
2msa1dma1eda_160.log	Energy: -1038021.2793622
S          1.19966       -1.80524       -0.90575
O         -0.17978       -2.31817       -1.15144
O          1.42587       -1.47259        0.52140
O          1.57022       -0.69494       -1.82051
C          2.26841       -3.16906       -1.31789
H          2.00915       -4.00887       -0.67328
H          2.10432       -3.41943       -2.36582
H          3.29906       -2.85542       -1.15146
S         -2.45089       -0.50137        0.77765
O         -3.82596       -0.30545        1.17928
O         -1.63348        0.70407        0.55107
O         -2.45548       -1.38078       -0.52318
H         -1.52179       -1.68717       -0.79832
C         -1.58797       -1.49765        1.97190
H         -1.60734       -0.94861        2.91451
H         -2.12210       -2.44292        2.06869
H         -0.56146       -1.64813        1.62468
N          2.30191        1.14882        1.61556
C          1.32193        1.28195        2.69102
C          3.62771        1.62815        1.98490
H          2.33958        0.16649        1.33779
H          1.17875        2.34111        2.92938
H          0.36353        0.87614        2.35567
H          1.62495        0.75975        3.61076
H          3.58859        2.70604        2.17354
H          4.02251        1.13953        2.88883
H          4.32534        1.45080        1.16249
H          0.62136        3.74665       -0.69820
H          1.55964        2.98455       -2.00836
H         -0.49881        3.77415       -2.96265
H         -0.61547        2.01406       -2.88540
H         -2.58163        3.38327       -2.03738
H         -2.04306        2.31550       -0.92303
H          1.45741        1.66626        0.16891
H         -0.14700        1.39212       -0.18462
C          0.65466        2.91088       -1.40054
C         -0.59501        2.93060       -2.27231
N          0.74883        1.65267       -0.62354
N         -1.78596        3.14035       -1.45987
H          1.02128        0.84079       -1.21758
