40
2msa1dma1eda_246.log	Energy: -1038018.4929754
S         -2.35072       -0.43597       -0.83360
O         -2.94680       -0.18197        0.48546
O         -1.64896       -1.75811       -0.93083
O         -1.47838        0.67674       -1.31004
C         -3.68296       -0.56145       -2.01002
H         -4.23598        0.37789       -1.99341
H         -3.25333       -0.74223       -2.99507
H         -4.32170       -1.39083       -1.70620
S          1.43076       -1.85976        0.70210
O          0.47659       -2.25963        1.72063
O          2.08155       -0.55299        0.86382
O          0.80724       -1.93696       -0.73149
H         -0.24481       -1.85492       -0.76211
C          2.71225       -3.08585        0.56315
H          3.26348       -3.08127        1.50405
H          2.24016       -4.05351        0.39596
H          3.36328       -2.81804       -0.26873
N          2.61288        1.73997       -0.95002
C          3.61763        2.76845       -1.18412
C          2.06273        1.17852       -2.18382
H          2.99941        0.97928       -0.39522
H          3.15196        3.62793       -1.67741
H          4.03136        3.10692       -0.23061
H          4.44546        2.42139       -1.82206
H          1.49948        1.95134       -2.71708
H          2.84248        0.79424       -2.85876
H          1.37695        0.36346       -1.94007
H          0.32296        3.30910        1.92588
H         -0.60644        3.66409        0.44812
H         -2.05312        3.23544        2.52594
H         -2.42364        2.19806        1.14193
H         -1.54916        1.32565        3.66326
H         -1.90158        0.42644        2.31898
H          1.16494        1.94247        0.06442
H          0.40526        1.01907        1.25201
C         -0.39172        2.90460        1.20379
C         -1.66834        2.42134        1.90230
N          0.24407        1.74621        0.54387
N         -1.37507        1.22021        2.67386
H         -0.39867        1.33456       -0.17190
