42
2msa2eda_22.log	Energy: -1072769.5257651
S          2.47469        0.30691       -0.72805
O          1.59358       -0.61478       -1.49938
O          2.53857       -0.04188        0.70981
O          2.12253        1.73153       -0.97159
C          4.11562        0.08952       -1.39330
H          4.40103       -0.95328       -1.25039
H          4.08896        0.33868       -2.45407
H          4.79252        0.75328       -0.85511
S         -2.95547       -0.48890       -0.38643
O         -2.62825        0.67325       -1.26090
O         -2.48583       -0.30347        1.00149
O         -2.51589       -1.78739       -0.97428
C         -4.73736       -0.57356       -0.35216
H         -5.11505        0.35939        0.06674
H         -5.09219       -0.70927       -1.37381
H         -5.02529       -1.41989        0.27181
H         -1.35872        1.98093        1.44138
H          0.17556        1.14032        1.18375
H          0.53644        3.16614        2.60317
H          1.41163        3.25003        1.06730
H         -1.04146        4.72056        1.71625
H          0.36412        5.29121        1.10209
H         -1.28551        1.58754       -0.84233
H         -0.78946        3.19945       -0.64230
C         -0.36546        2.06820        0.99631
C          0.41476        3.26740        1.51727
N         -0.53484        2.22103       -0.47121
N         -0.26473        4.49759        1.10294
H          0.38450        2.03080       -0.92207
H          0.33496       -1.20931        1.34039
H         -0.90897       -2.43114        1.60392
H          1.20751       -2.87972        2.87624
H          0.78520       -4.20293        1.78523
H          2.71930       -2.10587        1.07254
H          3.09216       -3.66704        1.47065
H          0.69667       -1.83298       -0.77583
H          0.25264       -3.42147       -0.53831
C          0.08290       -2.25877        1.18411
C          1.13227       -3.16152        1.81464
N          0.01400       -2.46309       -0.29018
N          2.38020       -3.06834        1.07000
H         -0.95056       -2.22967       -0.63887
