29
2msa1a1ma_20.log	Energy: -929314.2644145
S         -2.47749       -0.17170       -0.18912
O         -3.85313       -0.64768       -0.12837
O         -1.64697       -0.54650        1.01723
O         -2.31785        1.29644       -0.42104
H         -0.99751        1.75874        0.35654
C         -1.67800       -0.96333       -1.57759
H         -2.23405       -0.68925       -2.47494
H         -0.64689       -0.60938       -1.64324
H         -1.71830       -2.04398       -1.43159
S          2.13685       -0.30046       -0.29056
O          1.48308        0.58779       -1.26435
O          1.88331       -1.75233       -0.51376
O          1.81107        0.08510        1.12480
H          0.75966       -1.75548        2.22100
C          3.89765       -0.08591       -0.47561
H          4.16049       -0.36308       -1.49675
H          4.13433        0.96207       -0.29056
H          4.40539       -0.73044        0.24177
N          0.20814       -2.26801        1.53289
H         -0.06356       -3.18245        1.87961
H          0.81684       -2.31447        0.67917
H         -0.64137       -1.65256        1.29220
N         -0.16250        2.08713        0.92892
H         -0.51800        2.31631        1.85441
C          0.49993        3.23838        0.27942
H          1.31900        3.59422        0.90536
H          0.88957        2.88966       -0.67632
H         -0.22992        4.03295        0.12418
H          0.50145        1.29040        1.02795
