30
2msa1eda_38.log	Energy: -953204.9872663
S          1.24369       -1.62915        0.01588
O         -0.06061       -2.25374        0.42405
O          1.89844       -0.88683        1.10566
O          1.09418       -0.81823       -1.22272
H          0.94864        0.85502       -0.89204
C          2.27710       -3.01766       -0.39942
H          2.37135       -3.64510        0.48689
H          1.80276       -3.56401       -1.21437
H          3.24895       -2.63010       -0.70589
S         -2.43700        0.23027        0.02979
O         -2.26456        0.89647       -1.26445
O         -1.60508        0.77336        1.11498
O         -2.26048       -1.30216       -0.08544
H         -1.27126       -1.66791        0.12548
C         -4.14602        0.33135        0.49590
H         -4.73837       -0.14464       -0.28527
H         -4.27126       -0.17821        1.45067
H         -4.39537        1.38915        0.58144
H          1.87181        2.58302        1.55590
H          2.92186        3.67861        0.65699
H          0.66209        3.78169       -0.25434
H          1.78342        3.08983       -1.46102
H         -0.02954        1.49987        0.28491
H         -0.32494        1.83395       -1.27256
H          4.19839        1.81108        0.62464
H          2.94397        0.75904        0.54786
C          2.37038        2.73610        0.58489
C          1.30852        2.93233       -0.49094
N          3.28212        1.66443        0.22088
N          0.44578        1.73087       -0.60362
