43
2msa1eda1tma_47.log	Energy: -1062689.6592245
S          2.42683       -1.50659       -0.16610
O          1.43485       -0.99929       -1.15310
O          1.82549       -2.56987        0.70002
O          3.09508       -0.43485        0.59243
H         -0.84875       -1.12584        0.51107
C          3.70242       -2.33959       -1.10171
H          3.24425       -3.15176       -1.66648
H          4.16116       -1.61418       -1.77434
H          4.43814       -2.72796       -0.39699
S         -1.91791        1.23526       -0.44797
O         -3.37652        1.09760       -0.35934
O         -1.17692        0.51269        0.63591
O         -1.42166        2.64416       -0.51626
H          0.04015        2.62796        0.23114
C         -1.41521        0.46641       -1.98277
H         -1.88415       -0.51824       -2.03143
H         -1.76985        1.09237       -2.80226
H         -0.32860        0.36230       -1.99125
H         -1.89619       -3.85842        1.01021
H         -1.51975       -2.70017        2.30020
H         -3.95773       -2.62683        1.61730
H         -3.12031       -1.08113        1.44536
H         -4.15817       -2.70219       -0.68460
H         -3.85811       -1.07981       -0.60303
H          0.16840       -2.47566        0.57144
H         -1.05615       -2.32958       -0.58000
C         -1.84585       -2.79546        1.26215
C         -3.18868       -2.09550        1.04280
N         -0.82271       -2.16760        0.39977
N         -3.49041       -2.00292       -0.38488
N          1.05089        2.76776        0.50664
C          1.85269        2.28380       -0.64756
H          1.64527        1.22357       -0.80358
H          1.56918        2.86498       -1.52643
H          2.91377        2.40870       -0.42432
C          1.21012        4.22391        0.71734
H          0.89257        4.74604       -0.18572
H          0.58027        4.53174        1.55255
H          2.25752        4.44493        0.93420
C          1.33722        1.99328        1.74117
H          0.62649        2.29660        2.51004
H          1.23066        0.93408        1.52266
H          2.36400        2.19458        2.05278
