28
2msa1dma_70.log	Energy: -918450.0949858
S          2.96374       -0.38941        0.19601
O          2.94958       -1.09272        1.45946
O          2.57772        1.03033        0.18852
O          2.09799       -1.14996       -0.89452
H          1.16010       -0.80278       -0.90424
C          4.56433       -0.53616       -0.55373
H          5.27536       -0.07220        0.13043
H          4.78243       -1.59726       -0.67339
H          4.54947       -0.02255       -1.51400
S         -0.87882        0.91539       -0.02233
O         -1.25349        0.46382        1.30259
O         -0.31759       -0.08984       -0.94385
O          0.14363        2.13143        0.06125
H          1.06838        1.78390        0.17607
C         -2.24288        1.70545       -0.81562
H         -3.02664        0.93568       -0.88760
H         -2.56196        2.53214       -0.18025
H         -1.91745        2.05666       -1.79418
N         -4.23649       -0.83725       -0.39063
C         -4.61097       -0.55377        0.99070
C         -3.38064       -2.01361       -0.50430
H         -5.07349       -0.97618       -0.94677
H         -3.71179       -0.29017        1.55620
H         -5.29558        0.29888        1.01949
H         -5.09437       -1.40731        1.49459
H         -2.43947       -1.82774        0.02084
H         -3.83383       -2.92304       -0.07573
H         -3.14638       -2.19889       -1.55571
