42
2msa2eda_332.log	Energy: -1072754.8694030
S          0.21945        2.10500        0.05866
O          1.02355        1.81938        1.25991
O         -1.15885        2.54438        0.29884
O          0.23122        0.89909       -0.87689
C          1.05783        3.38957       -0.85321
H          1.07685        4.28146       -0.22618
H          2.07140        3.05222       -1.07332
H          0.50369        3.57756       -1.77286
S          2.99313       -1.23694       -0.22745
O          4.06194       -2.03169       -0.79146
O          1.85887       -1.92616        0.39931
O          2.45943       -0.28727       -1.37285
H          1.57959        0.16674       -1.14322
C          3.65529       -0.10052        0.96920
H          4.00932       -0.69388        1.81325
H          4.48484        0.42912        0.50029
H          2.86059        0.58778        1.27023
H         -0.89890       -1.92088        2.59387
H          0.18302       -0.54553        2.27654
H         -1.73715        0.25508        3.51546
H         -1.77199        0.93302        1.89103
H         -3.49459       -1.22731        2.86611
H         -3.91405        0.18561        2.16191
H         -0.04658       -1.90206        0.38011
H         -1.74125       -1.68653        0.25343
C         -0.79811       -0.97204        2.05876
C         -1.89299        0.00428        2.45630
N         -0.83093       -1.27983        0.60711
N         -3.21481       -0.54806        2.16588
H         -0.62643       -0.43090        0.04809
H         -4.65172       -1.40044       -1.96588
H         -4.57338       -1.05959       -0.22123
H         -3.96435        0.91627       -1.65405
H         -2.73138        0.47050       -0.49403
H         -2.56640        0.18165       -3.36664
H         -1.38940        0.49470       -2.25312
H         -3.46853       -3.13378       -0.74995
H         -2.44568       -2.33345       -1.76303
C         -3.97405       -1.17218       -1.12893
C         -3.23155        0.13578       -1.40747
N         -2.99934       -2.24908       -0.91162
N         -2.22014       -0.05693       -2.44549
