42
2msa2eda_244.log	Energy: -1072755.1234941
S         -0.51075       -2.62284        0.49654
O         -1.30808       -1.56898       -0.14880
O         -1.17492       -3.49358        1.44168
O          0.72999       -1.98153        1.21526
C          0.23186       -3.58807       -0.80311
H         -0.57712       -4.03960       -1.37831
H          0.83154       -2.91743       -1.42075
H          0.85208       -4.35559       -0.34035
S          2.49712        0.70884       -0.62301
O          2.78528        1.20075        0.72905
O          1.73330        1.64744       -1.48428
O          1.83415       -0.64578       -0.61827
H          1.23700       -1.36563        0.57044
C          4.06291        0.45452       -1.43776
H          4.55742        1.42313       -1.51406
H          4.65364       -0.23088       -0.82986
H          3.87710        0.03742       -2.42745
H         -1.89374        2.12837       -2.68023
H         -1.31228        0.51332       -3.11090
H         -3.71412        0.38312       -3.00270
H         -3.05920       -0.48979       -1.61226
H         -4.35350        2.12730       -1.52994
H         -4.64891        0.79821       -0.62431
H          0.01476        1.37604       -1.33364
H         -1.33035        1.72169       -0.34216
C         -1.81392        1.09415       -2.33230
C         -3.19026        0.50731       -2.04343
N         -0.96341        1.08459       -1.12565
N         -3.91671        1.33029       -1.07914
H         -0.91378        0.12832       -0.74262
H         -2.08011        1.88425        3.08296
H         -2.23188        0.65287        1.81289
H         -0.13403        0.35358        3.11496
H          0.18451        0.67370        1.42350
H          0.75087        2.44875        3.61723
H          1.54006        2.20086        2.19279
H         -2.64770        2.93596        0.99436
H         -1.06076        3.29102        1.34690
C         -1.65371        1.52673        2.13418
C         -0.19349        1.13045        2.34215
N         -1.71364        2.55250        1.08579
N          0.62497        2.30802        2.62208
