35
2msa1ma1dma_277.log	Energy: -978615.9325859
S         -2.16953       -0.47662       -0.25373
O         -2.08243        0.98049       -0.10760
O         -1.87980       -1.27892        0.92813
O         -1.34412       -0.95844       -1.48841
H         -0.37853       -0.56073       -1.58038
C         -3.80269       -0.88648       -0.82689
H         -4.49810       -0.60825       -0.03454
H         -4.00332       -0.32399       -1.73806
H         -3.84101       -1.95976       -1.01172
S          1.87989        0.18410       -0.71413
O          2.64430        1.43390       -0.84779
O          0.94069       -0.04664       -1.86011
O          1.13051        0.11849        0.58563
H          0.56858        1.56567        0.86603
C          2.99723       -1.19405       -0.70327
H          3.47633       -1.24079       -1.68155
H          3.73620       -1.02128        0.08006
H          2.39869       -2.08810       -0.49140
N          0.78334       -3.09599        0.77890
H          0.00696       -2.44293        0.70258
C          1.43252       -2.92129        2.07542
H          0.77489       -3.08763        2.94187
H          2.28353       -3.60585        2.15749
H          1.81356       -1.89792        2.13677
H          0.39090       -4.02788        0.69900
N          0.37749        2.59918        1.06722
C         -0.65140        2.71199        2.12581
C          0.03351        3.29038       -0.20228
H          1.27479        2.95162        1.40052
H         -1.56102        2.24477        1.74906
H         -0.30414        2.17854        3.01097
H         -0.82268        3.76440        2.35992
H         -0.87329        2.83142       -0.59374
H         -0.12102        4.35254       -0.00248
H          0.85888        3.13978       -0.89897
