35
2msa1ma1dma_124.log	Energy: -978625.0362109
S         -0.66211        1.84047       -0.05491
O         -1.96768        1.70876       -0.72887
O          0.46243        2.24924       -0.90433
O         -0.34029        0.58082        0.72852
H          1.11644        0.28215        0.95370
C         -0.86230        3.10789        1.18851
H         -1.12125        4.03622        0.67860
H         -1.65986        2.80726        1.86825
H          0.08216        3.21610        1.72268
S          2.80178       -0.61135       -0.11452
O          3.96179       -1.34636        0.34567
O          2.08495       -0.00533        1.15113
O          1.79996       -1.33144       -0.91864
H          0.06429       -1.61238       -0.52759
C          3.31125        0.81169       -1.04371
H          4.01574        1.37432       -0.43108
H          3.79313        0.44431       -1.95045
H          2.41889        1.40102       -1.26877
N         -0.71029       -2.20925       -0.18915
H         -1.67722       -1.68939       -0.32017
C         -0.48027       -2.52195        1.23914
H         -1.25382       -3.20614        1.59037
H          0.50563       -2.96986        1.36708
H         -0.53085       -1.58496        1.79184
H         -0.69128       -3.05472       -0.75559
N         -3.06868       -0.91672       -0.38880
C         -3.59790       -0.77492        0.96724
C         -4.04236       -1.46088       -1.33102
H         -2.76391        0.01435       -0.69540
H         -3.81443       -1.76214        1.39108
H         -2.84431       -0.28132        1.58570
H         -4.52101       -0.17949        0.99394
H         -4.29954       -2.48855       -1.05080
H         -4.97057       -0.87333       -1.36090
H         -3.61012       -1.47412       -2.33470
