30
2msa1eda_148.log	Energy: -953186.0162996
S         -1.06068       -1.91969        0.02532
O         -0.69192       -3.31680        0.06390
O         -0.55276       -1.10631       -1.09846
O         -0.65046       -1.17357        1.37136
H          0.31703       -0.91719        1.32561
C         -2.81759       -1.72328        0.10841
H         -3.22678       -2.28423       -0.73299
H         -3.15781       -2.14900        1.05242
H         -3.04840       -0.65739        0.01313
S          2.58090        0.22707       -0.03822
O          4.00645        0.02161       -0.11263
O          1.83820       -0.41456        1.06032
O          1.94789       -0.24535       -1.41566
H          1.02868       -0.60658       -1.30337
C          2.22385        1.96424       -0.00473
H          2.74065        2.37062        0.86630
H          2.62037        2.40225       -0.92086
H          1.14045        2.10042        0.09720
H         -2.98415        2.49630        1.30169
H         -1.89034        3.86584        1.03185
H         -3.24332        3.29170       -0.96051
H         -1.49824        3.21892       -1.26065
H         -2.98127        1.29676       -2.04756
H         -1.63089        0.86839       -1.25366
H         -0.60584        2.25341        2.08487
H         -1.12354        1.04243        1.14285
C         -2.07676        2.81911        0.76907
C         -2.33079        2.73213       -0.73002
N         -0.89644        2.03334        1.13762
N         -2.52521        1.34038       -1.14289
