34
2msa1a1eda_04.log	Energy: -988715.1665349
S         -2.51109       -0.94803       -0.01707
O         -1.37657       -0.81754       -0.98609
O         -3.04272        0.34983        0.43031
O         -2.12648       -1.86320        1.09769
C         -3.82218       -1.77249       -0.90092
H         -3.44486       -2.72598       -1.27042
H         -4.64793       -1.92561       -0.20579
H         -4.12833       -1.13168       -1.72801
S          2.92119       -0.20791       -0.16810
O          2.22008       -0.20465        1.15781
O          2.69413        1.06063       -0.90844
O          2.60119       -1.42575       -0.94228
C          4.66779       -0.24741        0.18807
H          4.91648        0.63134        0.78309
H          4.88450       -1.16278        0.73896
H          5.20289       -0.23436       -0.76163
N          0.53778       -2.32537        0.82028
H          0.86927       -3.19218        1.23309
H          1.10149       -1.51831        1.18093
H          0.74010       -2.32572       -0.18476
H         -0.49385       -2.19058        0.98355
H         -0.77342        1.15317        1.14613
H          0.77875        2.00536        1.14239
H         -1.29473        3.41192        1.75327
H         -0.30969        4.08994        0.44744
H         -2.70581        2.45112       -0.03184
H         -2.55874        4.07685       -0.31242
H         -0.44147        0.61175       -0.93734
H         -0.51328        2.20947       -1.35031
C         -0.19661        1.94080        0.66049
C         -0.96988        3.25669        0.71542
N          0.00289        1.54169       -0.76499
N         -2.05370        3.20117       -0.26025
H          1.01640        1.47871       -0.99933
