35
2msa1ma1dma_44.log	Energy: -978628.1207086
S          1.91387       -1.37433       -0.05809
O          3.07640       -0.64094        0.45914
O          1.62566       -1.20011       -1.49017
O          0.68558       -1.05422        0.79129
C          2.20446       -3.11302        0.21259
H          3.08695       -3.39398       -0.36294
H          2.37187       -3.27112        1.27788
H          1.33005       -3.66569       -0.13208
S         -2.55976       -0.32244        0.05096
O         -2.37299        0.55400       -1.10470
O         -2.46465        0.30250        1.36901
O         -1.61553       -1.56806       -0.02993
H         -0.64182       -1.35686        0.28918
C         -4.13305       -1.13066       -0.11050
H         -4.89374       -0.35034       -0.07812
H         -4.15435       -1.65052       -1.06790
H         -4.25220       -1.82579        0.71984
N          0.42442        1.56235       -1.59756
H          0.87716        0.66967       -1.81201
C          0.88991        2.61556       -2.50183
H          0.70187        2.39235       -3.55867
H          0.39101        3.55823       -2.25898
H          1.96599        2.75785       -2.37065
H         -0.57683        1.39573       -1.69935
N          0.85629        1.77904        1.07169
C         -0.20098        2.57664        1.72270
C          2.22688        2.27399        1.31249
H          0.78685        0.78313        1.33787
H         -0.18759        3.58480        1.30299
H         -1.16469        2.10042        1.53985
H         -0.01586        2.62698        2.79786
H          2.32565        3.26609        0.86656
H          2.41298        2.33580        2.38678
H          2.92821        1.57224        0.85953
H          0.67871        1.74929       -0.01226
