38
2msa2dma_66.log	Energy: -1003284.8522256
S          0.82160        2.29633        0.19846
O          0.37313        2.44543        1.57593
O         -0.36861        2.38869       -0.80767
O          1.65121        1.11966       -0.08463
C          1.73069        3.74126       -0.29814
H          1.10997        4.61724       -0.11224
H          2.63658        3.77217        0.30798
H          1.97397        3.64902       -1.35631
S         -2.46174       -0.38391       -0.27592
O         -2.66682       -1.01796        1.03512
O         -1.26132       -0.91743       -0.98487
O         -2.43379        1.11233       -0.22395
H         -1.20773        1.82701       -0.53680
C         -3.87078       -0.78161       -1.29231
H         -3.93966       -1.86671       -1.37072
H         -4.75805       -0.37332       -0.80813
H         -3.72489       -0.32941       -2.27328
N          0.44623       -1.73894        1.00375
C         -0.04076       -3.12691        1.12176
C          0.38915       -0.97827        2.27116
H          1.41531       -1.72555        0.57815
H         -1.08732       -3.10005        1.42950
H          0.04020       -3.60849        0.14654
H          0.56251       -3.66587        1.85498
H         -0.65427       -0.90345        2.58104
H          0.98053       -1.50039        3.02641
H          0.78897        0.02071        2.10211
H         -0.15367       -1.27698        0.28387
N          2.73358       -1.54860       -0.59010
C          2.08423       -1.81013       -1.87475
C          4.03679       -2.18848       -0.46408
H          2.82054       -0.54014       -0.48345
H          1.88140       -2.88266       -1.96955
H          1.13400       -1.27132       -1.91926
H          2.70353       -1.50520       -2.73142
H          3.91365       -3.27626       -0.48924
H          4.73147       -1.90821       -1.27090
H          4.49010       -1.91918        0.49334
