37
2msa1ma1eda_538.log	Energy: -1013349.8182841
S          2.62462       -0.27298       -0.10853
O          2.08102       -0.85107        1.14790
O          2.88300        1.19089       -0.00261
O          1.79477       -0.59984       -1.29643
C          4.21833       -1.03767       -0.36236
H          4.84548       -0.80993        0.49974
H          4.06981       -2.11363       -0.45750
H          4.65183       -0.62670       -1.27427
S         -1.83058       -1.75517       -0.36041
O         -1.62751       -0.31898       -0.45949
O         -2.63557       -2.44643       -1.35182
O         -2.55098       -1.98958        1.08279
H         -3.26161       -2.63500        0.96057
C         -0.27635       -2.56034       -0.13033
H          0.31737       -2.35929       -1.02496
H          0.23961       -2.10349        0.71794
H         -0.46726       -3.62375        0.01348
N          0.16044        1.30142        2.07513
H          0.79122        0.49793        2.00659
C         -1.06362        0.96657        2.80486
H         -0.88500        0.66452        3.84482
H         -1.73569        1.82908        2.79863
H         -1.57014        0.14438        2.29391
H          0.67865        2.02749        2.56059
H         -0.19025        3.90585       -0.60359
H          0.00928        3.19697       -2.22463
H         -2.35156        3.71165       -1.73875
H         -2.11955        1.97825       -1.99185
H         -3.45520        2.84257        0.04608
H         -2.40244        1.61953        0.28279
H          1.31448        1.94955       -0.60877
H          0.04138        1.72835        0.42062
C         -0.40733        3.03508       -1.22669
C         -1.91189        2.80997       -1.30160
N          0.27999        1.87847       -0.61777
N         -2.47145        2.60181        0.02976
H          0.07952        0.99260       -1.09431
