37
2msa1ma1eda_545.log	Energy: -1013348.8283816
S         -1.25402        1.14623       -0.71834
O         -0.68531        0.92531        0.63551
O         -2.45641        2.00123       -0.72444
O         -1.53454       -0.16825       -1.41007
H         -3.03348       -0.45340       -1.07895
C          0.01482        1.93199       -1.68548
H          0.23593        2.89145       -1.21530
H          0.89191        1.28006       -1.68941
H         -0.37069        2.08150       -2.69410
S          2.72513       -1.24012       -0.35116
O          3.49010       -2.37506       -0.83233
O          2.62492       -0.04543       -1.20019
O          3.27828       -0.79838        1.05429
H          3.29707        0.26550        1.12815
C          1.07706       -1.78456        0.03515
H          0.60179       -2.07684       -0.90198
H          1.15841       -2.63172        0.71698
H          0.53248       -0.94946        0.48113
N          3.26831        1.76448        1.06943
H          4.13909        2.20058        1.35657
C          2.11385        2.35290        1.76596
H          2.02803        3.43371        1.60660
H          1.20007        1.86897        1.41216
H          2.21175        2.16311        2.83723
H          3.18173        1.88033        0.06122
H         -4.97391       -1.88342        0.71979
H         -3.74699       -2.64158       -0.33248
H         -2.98551       -2.36312        2.09254
H         -1.93164       -1.57504        0.91214
H         -3.42309       -0.28545        2.95108
H         -2.31577        0.35650        1.89070
H         -4.74546       -0.54557       -1.25888
H         -4.04523        0.26431        0.03012
C         -3.97850       -1.76929        0.28262
C         -2.92361       -1.53993        1.37329
N         -3.98560       -0.56435       -0.58398
N         -3.14018       -0.23442        1.98247
