43
2msa1eda1tma_154.log	Energy: -1062678.2409681
S         -2.23935       -1.32147       -0.62352
O         -1.03902       -1.39418       -1.47036
O         -3.10830       -0.14775       -0.85655
O         -1.91120       -1.45460        0.84545
H         -2.21573       -0.11569        1.60761
C         -3.22004       -2.76509       -1.00782
H         -3.47235       -2.72007       -2.06765
H         -2.62590       -3.65386       -0.79364
H         -4.12264       -2.74676       -0.39668
S          2.09159        1.47885       -0.70674
O          2.75720        2.77725       -0.79462
O          1.33725        1.23667        0.55415
O          3.02121        0.31252       -0.96850
H          2.74247       -0.81100       -0.05013
C          0.90598        1.38728       -2.04201
H          0.24774        2.25478       -1.97749
H          1.46290        1.41543       -2.97919
H          0.33575        0.45920       -1.95211
H         -1.55926        2.64529        2.59628
H         -0.40793        1.40812        1.99436
H         -0.96079        3.22997        0.29729
H         -1.22154        1.57675       -0.24365
H         -3.21099        3.57195        0.00455
H         -3.34192        2.02256       -0.57323
H         -2.62336        0.63027        3.08406
H         -3.29719        1.19610        1.64902
C         -1.39945        1.84342        1.87057
C         -1.58794        2.34608        0.43772
N         -2.44813        0.80947        2.09930
N         -3.00878        2.59961        0.19318
N          2.62915       -1.62552        0.66850
C          3.37918       -2.77770        0.13175
H          2.92549       -3.08037       -0.81248
H          4.41365       -2.47935       -0.04403
H          3.34356       -3.60660        0.84405
C          3.20449       -1.11501        1.93141
H          4.26092       -0.89345        1.77395
H          2.67889       -0.19335        2.18453
H          3.08834       -1.86491        2.71903
C          1.18088       -1.91480        0.80137
H          0.68513       -1.01875        1.16755
H          0.76113       -2.14190       -0.17920
H          1.03637       -2.75169        1.49017
