41
2msa1dma1tma_76.log	Energy: -1027941.2934504
S          0.62207       -2.11193       -0.21571
O         -0.80736       -2.50482       -0.01633
O          1.49898       -2.50891        0.89509
O          0.72769       -0.65973       -0.55232
C          1.16270       -2.98762       -1.67144
H          1.04936       -4.05501       -1.48081
H          0.53747       -2.67638       -2.50854
H          2.20864       -2.73894       -1.85315
S         -2.57317        0.56076       -0.19686
O         -2.07573        1.49096       -1.19766
O         -1.94406        0.59633        1.12660
O         -2.60164       -0.90649       -0.74560
H         -1.82997       -1.51422       -0.41564
C         -4.32092        0.83165        0.00197
H         -4.45105        1.85540        0.35409
H         -4.79922        0.69600       -0.96789
H         -4.70124        0.11632        0.73047
N          2.44441        2.34905       -1.24912
C          1.10150        2.48476       -1.81296
C          3.17622        1.23774       -1.84879
H          2.96002        3.20875       -1.40925
H          0.50948        1.59811       -1.57343
H          0.59845        3.35084       -1.37352
H          1.10332        2.60593       -2.90876
H          2.64988        0.30765       -1.61421
H          3.26423        1.31641       -2.94556
H          4.18462        1.18422       -1.42546
N          1.18779        0.72172        1.74123
C          2.66369        0.56218        1.71130
H          2.88375       -0.49905        1.58710
H          3.04040        1.13684        0.86409
H          3.08008        0.93849        2.64895
C          0.78580        2.14951        1.75191
H          1.27375        2.63520        0.90557
H         -0.29834        2.19723        1.65225
H          1.11202        2.59861        2.69345
C          0.57743       -0.04638        2.85794
H         -0.50450        0.05326        2.78804
H          0.86186       -1.09337        2.74421
H          0.94984        0.35897        3.80190
H          0.84788        0.29232        0.84482
