35
2msa1ma1dma_338.log	Energy: -978605.7635126
S          1.55850        0.29710        0.38840
O          0.71842       -0.13619       -0.74472
O          2.53024        1.34379        0.07633
O          2.30829       -0.94314        0.97655
H          3.35800       -0.91058        0.67723
C          0.49848        0.79918        1.70664
H         -0.12921        1.60421        1.29523
H         -0.12626       -0.05228        1.98439
H          1.12526        1.13301        2.53339
S         -2.40114       -1.40159       -0.01433
O         -2.98105       -0.19219       -0.58499
O         -1.99793       -1.37047        1.38544
O         -1.19419       -1.90748       -0.91404
H         -0.42663       -1.26471       -0.84877
C         -3.51210       -2.76075       -0.28338
H         -4.42435       -2.53041        0.26772
H         -3.71425       -2.83660       -1.35123
H         -3.04685       -3.66841        0.09943
N          4.69658       -0.72981        0.16644
H          4.84962        0.26885        0.29226
C          4.70956       -1.06668       -1.26741
H          5.66413       -0.83123       -1.74709
H          4.50170       -2.13160       -1.38547
H          3.91466       -0.50375       -1.76029
H          5.42420       -1.22702        0.67103
N         -1.49710        2.54519       -0.14890
C         -0.77116        3.03215       -1.31133
C         -2.45304        3.50881        0.36827
H         -1.98435        1.68503       -0.38782
H         -0.13748        3.87808       -1.02111
H         -0.12078        2.24056       -1.69134
H         -1.43304        3.36975       -2.12843
H         -1.92156        4.38940        0.74773
H         -3.17964        3.85616       -0.38742
H         -3.00785        3.06481        1.19948
