42
2msa2eda_453.log	Energy: -1072749.1752565
S         -0.36322        2.40907       -0.36417
O          0.59451        1.81677       -1.33643
O          0.04799        2.18259        1.04502
O         -1.76242        1.98230       -0.63510
H         -1.66801       -0.11403       -1.42332
C         -0.32390        4.17483       -0.62525
H          0.69088        4.52628       -0.43714
H         -0.61561        4.37309       -1.65666
H         -1.02521        4.63519        0.07098
S          2.83232       -0.85814        0.25629
O          2.46802       -1.48358        1.51273
O          2.06781       -1.16799       -0.94607
O          4.36985       -1.27884       -0.06103
H          4.40769       -1.60953       -0.96976
C          2.99064        0.88707        0.49327
H          2.01786        1.26394        0.82725
H          3.76114        1.04148        1.24920
H          3.25011        1.34172       -0.46191
H         -1.44038       -3.14676       -0.29779
H         -1.78822       -3.87235       -1.85609
H          0.17806       -2.36490       -1.95454
H         -1.11646       -1.79258       -3.02921
H         -0.71528       -0.77082       -0.22362
H         -0.04244       -0.03919       -1.58261
H         -3.29472       -1.69063       -0.53368
H         -3.60859       -2.25452       -2.07450
C         -1.81727       -2.92634       -1.30339
C         -0.83764       -1.96554       -1.98510
N         -3.18813       -2.47812       -1.17978
N         -0.81312       -0.66015       -1.29144
H         -2.66799        0.57485        2.71479
H         -3.75321       -0.81917        2.70509
H         -1.49610       -1.48700        3.27092
H         -2.03312       -2.25557        1.76850
H         -0.41966        0.21260        1.69390
H          0.26305       -1.27500        1.72776
H         -4.32461        0.23805        0.79332
H         -2.82015        0.71897        0.41156
C         -2.92681       -0.34440        2.16644
C         -1.73986       -1.29832        2.21591
N         -3.35588       -0.06305        0.79394
N         -0.58596       -0.77338        1.47576
