35
2msa1ma1dma_179.log	Energy: -978621.0147098
S          1.62021        0.54008        0.57398
O          1.53781       -0.29639       -0.62666
O          0.81581        1.76626        0.58789
O          3.11653        0.91812        0.82192
H          3.75117        0.52234        0.02783
C          1.19464       -0.41964        2.00077
H          0.13612       -0.68192        1.88921
H          1.83109       -1.30490        2.01516
H          1.36389        0.19770        2.88329
S         -2.37622       -1.40120       -0.04616
O         -3.54105       -2.19271        0.34315
O         -1.72652       -0.64044        1.05953
O         -2.63404       -0.47143       -1.20610
H         -2.15466        0.93786       -0.78927
C         -1.13679       -2.54126       -0.65034
H         -0.92279       -3.25740        0.14470
H         -1.54704       -3.05532       -1.52017
H         -0.24365       -1.97203       -0.91413
N          4.51488       -0.08572       -1.03557
H          3.94237        0.04562       -1.86618
C          4.67801       -1.52247       -0.75679
H          5.19508       -2.05275       -1.56197
H          5.24121       -1.64297        0.17066
H          3.68556       -1.95634       -0.62261
H          5.41124        0.36255       -1.20185
N         -1.82692        1.89252       -0.41990
C         -2.77650        2.33385        0.62144
C         -1.65784        2.83665       -1.53731
H         -0.90788        1.71952        0.01788
H         -3.76043        2.46857        0.16912
H         -2.82144        1.54905        1.37681
H         -2.43113        3.27269        1.05933
H         -2.61976        2.98215       -2.03158
H         -1.28186        3.79050       -1.16205
H         -0.94404        2.41519       -2.24538
