40
2msa1dma1eda_369.log	Energy: -1038015.8362635
S          1.10267        2.30377       -0.05942
O          1.37858        3.71620        0.07522
O          0.51949        1.80396        1.31763
O          2.22815        1.43149       -0.44730
H          2.58662       -0.22371       -0.34489
C         -0.20929        2.02312       -1.22338
H         -1.12875        2.46443       -0.83012
H          0.09755        2.49795       -2.15635
H         -0.31829        0.94302       -1.34961
S         -0.29044       -1.65370        0.49439
O          0.90106       -2.33506        1.08055
O         -0.09874       -1.34560       -0.94051
O         -0.68100       -0.44115        1.28180
H          0.13978        0.85972        1.28419
C         -1.65625       -2.77811        0.65382
H         -1.38339       -3.70056        0.14024
H         -1.81404       -2.96214        1.71668
H         -2.54093       -2.32702        0.19200
N          2.96681       -1.18781       -0.24462
C          4.24627       -1.10836        0.48745
C          3.05388       -1.80778       -1.58379
H          2.24815       -1.70628        0.32258
H          4.95237       -0.50764       -0.08758
H          4.06691       -0.63462        1.45235
H          4.64288       -2.11386        0.63577
H          3.70617       -1.20488       -2.21757
H          3.45629       -2.81725       -1.48448
H          2.04528       -1.84409       -1.99625
H         -3.75101       -0.21090        1.10718
H         -4.85483        0.93228        0.33220
H         -3.57624        0.85216       -1.74476
H         -2.30671       -0.10446       -0.97670
H         -5.04744       -1.08735       -1.33699
H         -3.72144       -1.58220       -2.14992
H         -3.43844        2.33113        1.44426
H         -2.11603        1.42263        1.15933
C         -3.80669        0.61086        0.37795
C         -3.38499        0.07666       -0.98723
N         -2.97972        1.75965        0.74442
N         -4.04108       -1.20249       -1.26537
