41
2msa1dma1tma_118.log	Energy: -1027936.8831758
S         -0.82016        2.55394       -0.14946
O         -1.41277        3.67920       -0.84601
O          0.58443        2.61861        0.24438
O         -0.93177        1.22931       -1.02674
C         -1.81563        2.17243        1.27822
H         -1.70093        3.00788        1.96992
H         -2.85235        2.07049        0.95655
H         -1.47598        1.23325        1.71724
S         -2.53098       -1.39407        0.07898
O         -2.09243       -1.15797        1.46593
O         -1.48323       -2.08131       -0.73746
O         -3.03158       -0.16080       -0.60513
H         -1.83811        0.77027       -0.96642
C         -3.92730       -2.49836        0.11904
H         -4.72305       -2.01233        0.68365
H         -4.24127       -2.68770       -0.90718
H         -3.61501       -3.42108        0.60819
N          4.60074       -0.50915        0.54374
C          4.43542        0.92896        0.73698
C          5.52490       -0.81997       -0.53975
H          4.94899       -0.92178        1.40296
H          3.93714        1.36325       -0.13588
H          3.79696        1.12041        1.60295
H          5.39004        1.45982        0.88070
H          5.10842       -0.45909       -1.48708
H          6.51688       -0.35496       -0.41786
H          5.65481       -1.90260       -0.62120
N          1.04833       -1.33731       -0.23719
C          1.58815       -2.71011       -0.09215
H          1.06481       -3.20454        0.72658
H          1.40997       -3.25736       -1.01824
H          2.65767       -2.63855        0.11761
C          1.70517       -0.60947       -1.35178
H          1.55679       -1.17670       -2.27181
H          1.23891        0.37015       -1.44446
H          2.76627       -0.52237       -1.11524
C          1.13926       -0.59226        1.04781
H          0.91969        0.45911        0.86173
H          0.40597       -1.01379        1.73705
H          2.15849       -0.69461        1.42274
H          0.02857       -1.46353       -0.47062
