38
2msa2dma_61.log	Energy: -1003287.3943669
S         -2.76312       -0.15685       -0.15353
O         -3.07660       -1.09179        0.91791
O         -3.57857       -0.14258       -1.35365
O         -1.24231       -0.45726       -0.52445
H         -0.72834        0.33862       -0.89398
C         -2.68677        1.49782        0.50427
H         -3.67499        1.71902        0.90902
H         -1.91418        1.53713        1.27245
H         -2.44413        2.17720       -0.31372
S          1.19176        1.82611       -0.07811
O          0.31151        1.42827       -1.23113
O          2.52993        1.21800       -0.15532
O          0.50775        1.57912        1.22282
H          0.53582       -0.23831        1.48445
C          1.38815        3.59016       -0.22707
H          2.02793        3.92617        0.58909
H          1.85287        3.79531       -1.19142
H          0.40416        4.05464       -0.16446
N          0.92122       -1.20012        1.45284
C         -0.03697       -2.17865        2.00449
C          2.23823       -1.18030        2.12196
H          1.09117       -1.39807        0.40341
H         -0.17629       -1.99273        3.07135
H         -0.99198       -2.07251        1.48918
H          0.36336       -3.18415        1.85924
H          2.10784       -0.95735        3.18249
H          2.71257       -2.15694        2.00569
H          2.84247       -0.40623        1.64658
N          1.51926       -1.64510       -1.20446
C          0.73224       -2.70455       -1.83384
C          2.96219       -1.83281       -1.35071
H          1.26992       -0.74506       -1.61233
H          0.94493       -3.65656       -1.33573
H         -0.32965       -2.48010       -1.71773
H          0.96086       -2.82237       -2.90273
H          3.27114       -2.72737       -0.79840
H          3.26396       -1.96198       -2.40011
H          3.47263       -0.95999       -0.93889
