42
2msa2eda_214.log	Energy: -1072756.1792913
S         -1.85465       -1.06635       -1.18142
O         -2.36678        0.10672       -1.89996
O         -2.45748       -1.35303        0.12796
O         -0.33621       -1.01164       -1.03132
C         -2.13763       -2.48412       -2.22798
H         -1.71683       -3.36409       -1.74152
H         -3.21541       -2.59162       -2.35329
H         -1.65633       -2.30382       -3.18933
S          2.41985        0.70546       -0.81432
O          3.11435       -0.55744       -0.57421
O          1.80123        1.34249        0.34955
O          1.37420        0.55665       -1.97438
H          0.60014       -0.06665       -1.68167
C          3.53993        1.85277       -1.57567
H          2.99313        2.76561       -1.80975
H          4.32914        2.04819       -0.84914
H          3.94626        1.39236       -2.47564
H          0.00216       -1.73487        3.42523
H         -0.98572       -2.29074        2.04024
H          1.15345       -3.63375        2.32330
H          1.04617       -2.81927        0.76143
H          3.04244       -2.44662        2.69814
H          2.87900       -1.63813        1.26770
H         -0.70311        0.18381        2.09934
H          0.96858       -0.10238        1.88534
C         -0.03390       -1.84611        2.33826
C          1.16544       -2.65225        1.83836
N          0.03428       -0.49864        1.73864
N          2.40171       -1.92428        2.11738
H         -0.09913       -0.58339        0.71542
H         -1.72078        3.59229        2.22993
H         -0.15848        2.75966        2.08430
H         -0.98876        3.46923       -0.13135
H         -0.86423        1.72265       -0.03181
H         -3.31047        3.25488       -0.17332
H         -2.95630        1.74110       -0.73966
H         -1.96870        1.62056        3.46975
H         -2.67569        1.28998        2.02131
C         -1.22790        2.68260        1.85790
C         -1.42732        2.58203        0.34516
N         -1.78102        1.47122        2.48380
N         -2.83925        2.38454        0.03870
