42
2msa2eda_11.log	Energy: -1072771.0819886
S          2.42822       -1.33059       -0.53330
O          2.76777       -0.01828       -1.15332
O          1.44323       -2.10433       -1.34178
O          2.02810       -1.20859        0.88397
C          3.93697       -2.28216       -0.58451
H          4.23336       -2.39549       -1.62727
H          4.69960       -1.74256       -0.02257
H          3.74117       -3.25398       -0.13112
S         -2.42779        1.33049       -0.53356
O         -2.76480        0.01836       -1.15536
O         -1.44228        2.10607       -1.33970
O         -2.03013        1.20765        0.88431
C         -3.93738        2.28060       -0.58675
H         -4.23142        2.39529       -1.63002
H         -4.70080        1.73941       -0.02742
H         -3.74354        3.25190       -0.13141
H         -0.30650       -2.52492        1.41429
H         -0.92009       -0.86531        1.25375
H         -2.47880       -2.22456        2.64970
H         -3.23374       -1.64087        1.16286
H         -2.33589       -4.38883        1.65420
H         -3.78784       -3.86819        1.10807
H         -0.16075       -2.05072       -0.85132
H         -1.58094       -2.96212       -0.66519
C         -1.11990       -1.91141        1.02070
C         -2.48121       -2.33016        1.55735
N         -1.13207       -2.06482       -0.45647
N         -2.79263       -3.68257        1.08691
H         -1.71027       -1.29816       -0.87229
H          0.30510        2.52502        1.41099
H          0.91901        0.86547        1.25140
H          2.47544        2.22478        2.64980
H          3.23288        1.64144        1.16406
H          2.33319        4.38910        1.65390
H          3.78653        3.86902        1.11091
H          0.16242        2.05165       -0.85420
H          1.58322        2.96195       -0.66665
C          1.11917        1.91158        1.01865
C          2.47955        2.33049        1.55744
N          1.13349        2.06493       -0.45853
N          2.79144        3.68300        1.08760
H          1.71178        1.29787       -0.87344
