38
2msa1ma1tma_35.log	Energy: -1003282.5553590
S         -2.03749       -1.39774        0.09383
O         -1.70243       -2.53499       -0.75857
O         -3.04820       -0.45760       -0.41657
O         -0.78257       -0.61037        0.49560
C         -2.65106       -2.03924        1.64411
H         -3.56762       -2.59018        1.43072
H         -1.89590       -2.70369        2.06506
H         -2.85456       -1.20356        2.31390
S          2.49332       -0.60299       -0.02819
O          2.66762        0.57759        0.81606
O          2.11805       -0.35664       -1.42088
O          1.50194       -1.61782        0.63558
H          0.52178       -1.27495        0.56543
C          3.97845       -1.57534        0.01351
H          4.20688       -1.80620        1.05363
H          3.81085       -2.48265       -0.56579
H          4.76766       -0.96808       -0.43052
N          0.00059        1.97824        1.75195
H         -0.52170        1.10848        1.82013
C         -0.29205        2.85825        2.87944
H         -0.05691        2.43036        3.86484
H          0.27185        3.79009        2.77475
H         -1.35549        3.11845        2.87296
H          0.98145        1.70645        1.74151
N         -0.63482        1.60690       -1.31531
C         -1.84873        2.40469       -1.00031
H         -2.68078        1.71205       -0.87058
H         -1.65394        2.94144       -0.07154
H         -2.03377        3.09863       -1.82336
C          0.57266        2.46815       -1.40293
H          0.70188        2.95242       -0.43587
H          1.43271        1.83786       -1.62497
H          0.41281        3.20198       -2.19648
C         -0.81061        0.77607       -2.53749
H          0.05410        0.11804       -2.62532
H         -1.72234        0.18921       -2.42715
H         -0.88277        1.44075       -3.40106
H         -0.51716        0.94210       -0.52469
