42
2msa2eda_589.log	Energy: -1072742.5145573
S          0.17935       -1.58644        1.02323
O         -0.99358       -2.38278        1.37692
O          0.11431       -1.06867       -0.40924
O          1.49511       -2.27048        1.20568
H          2.34910       -2.48577       -0.30629
C          0.21073       -0.14117        2.05781
H         -0.73338        0.38580        1.91741
H          0.32354       -0.48353        3.08705
H          1.04968        0.49065        1.76121
S         -3.17078        0.27197       -0.52660
O         -4.16590        0.97954       -1.30405
O         -2.50730        0.95497        0.58478
O         -2.06468       -0.23695       -1.54551
H         -1.23902       -0.54566       -1.05871
C         -3.85965       -1.24055        0.10639
H         -4.63043       -0.96194        0.82602
H         -4.29259       -1.78887       -0.73010
H         -3.05853       -1.80466        0.59078
H          2.21549        0.33899       -1.39519
H          3.92822        0.65597       -1.69074
H          3.31066       -1.32207       -2.90316
H          4.36875       -1.82351       -1.55226
H          1.39215       -1.87825       -1.42264
H          2.34702       -3.21403       -1.82261
H          3.41064        0.89168        0.62843
H          2.96592       -0.66924        0.75439
C          3.23578       -0.01847       -1.17593
C          3.40322       -1.38764       -1.81672
N          3.57462       -0.03972        0.23565
N          2.33379       -2.31765       -1.34099
H          1.86899        4.33854       -0.33603
H          2.59504        2.91777       -1.09603
H          0.16728        2.89524       -1.40873
H          0.64703        1.53721       -0.38689
H         -0.56033        4.01451        0.58796
H         -1.13414        2.48806        0.71086
H          3.34633        3.38577        1.25088
H          1.84672        2.92394        1.72442
C          1.95772        3.24188       -0.26432
C          0.56835        2.63008       -0.41854
N          2.55348        2.80443        1.00030
N         -0.28215        3.04370        0.69405
