43
2msa1eda1tma_16.log	Energy: -1062692.0064425
S          2.72322       -0.82022       -0.40027
O          3.35385        0.37694       -0.97895
O          2.16458       -1.78121       -1.37575
O          1.69218       -0.44850        0.64265
C          3.99693       -1.69860        0.49122
H          3.55142       -2.57478        0.96244
H          4.75939       -1.99630       -0.22891
H          4.41798       -1.02844        1.24097
S         -2.58687        0.90717       -0.46690
O         -2.26058       -0.04218       -1.57161
O         -2.28718        2.31347       -0.77995
O         -1.96420        0.45569        0.81553
C         -4.35295        0.77713       -0.23715
H         -4.83706        1.09156       -1.16205
H         -4.58826       -0.26536       -0.01690
H         -4.64251        1.42846        0.58802
H         -1.59951       -3.59485       -0.83926
H          0.00202       -3.80130       -0.08282
H         -1.75070       -4.17482        1.55581
H         -0.79716       -2.75349        1.98980
H         -3.33584       -2.59660        2.08571
H         -2.60014       -1.38430        1.25774
H         -1.28015       -1.25952       -0.98158
H         -0.07607       -1.27607        0.17713
C         -0.90027       -3.18457       -0.10798
C         -1.54174       -3.13833        1.27155
N         -0.49755       -1.83527       -0.57908
N         -2.78813       -2.38829        1.25927
H          0.27085       -1.89603       -1.26420
N          1.27483        2.25961        0.61996
C          0.23444        2.70042        1.58492
H         -0.70499        2.20319        1.33998
H          0.55292        2.42014        2.59012
H          0.12637        3.78460        1.51167
C          2.62830        2.72816        1.00723
H          2.86392        2.33478        1.99706
H          3.34259        2.34462        0.27841
H          2.63217        3.82022        1.02795
C          0.94627        2.65796       -0.77821
H          1.64345        2.14616       -1.44254
H         -0.08898        2.38612       -0.99171
H          1.05912        3.74135       -0.86321
H          1.31854        1.21054        0.63901
