42
2msa2eda_479.log	Energy: -1072747.2619237
S          2.95263       -1.19193        0.31426
O          4.07269       -1.64898        1.11725
O          3.08075       -1.16050       -1.14099
O          2.51838        0.24298        0.81298
H          2.39159        0.94171        0.01744
C          1.52696       -2.17175        0.73679
H          1.72680       -3.18782        0.39350
H          1.41877       -2.15869        1.82192
H          0.63696       -1.76371        0.25291
S         -2.81808       -0.90869       -0.44683
O         -2.74211       -0.15053       -1.70480
O         -3.83724       -0.44349        0.51626
O         -1.47104       -0.99901        0.24351
H         -1.68733       -0.15095        1.55737
C         -3.22565       -2.58957       -0.88783
H         -4.19764       -2.57598       -1.38163
H         -2.45752       -2.96145       -1.56627
H         -3.26461       -3.18807        0.02237
H          1.78426        2.21717       -3.10909
H          2.45729        0.65264       -2.58620
H          0.10717        0.37080       -3.14209
H          0.33406        0.11447       -1.41750
H         -0.72845        2.55927       -2.62063
H         -1.51746        1.44877       -1.73032
H          3.07304        2.50968       -1.12835
H          1.49155        2.69106       -0.72358
C          1.76059        1.45033       -2.32185
C          0.35839        0.87797       -2.20103
N          2.19102        2.01518       -1.02720
N         -0.61472        1.91741       -1.83938
H         -0.84252        1.81828        3.66687
H          0.05078        0.36144        3.15292
H          0.91660        2.41812        1.98612
H          0.26498        1.21203        0.88123
H         -0.91706        3.79111        1.43829
H         -0.94774        2.83391        0.07164
H         -2.47478        0.15785        3.03235
H         -2.39707        1.32344        1.84129
C         -0.61356        1.16220        2.82262
C         -0.00940        1.93672        1.65095
N         -1.87755        0.57439        2.32288
N         -1.00300        2.84385        1.09215
