42
2msa2eda_375.log	Energy: -1072752.2042950
S         -1.25423        2.49718       -0.27311
O         -1.83219        3.67290       -0.90817
O          0.18729        2.54266        0.03439
O         -1.53684        1.21475       -1.07821
C         -2.10375        2.22787        1.27599
H         -1.90524        3.09393        1.90817
H         -3.17248        2.14286        1.07493
H         -1.71631        1.31361        1.72879
S         -2.05488       -1.71824        0.39082
O         -1.10713       -1.07134        1.30325
O         -1.47201       -2.65336       -0.57316
O         -2.93303       -0.64917       -0.32420
H         -2.36123        0.20170       -0.65083
C         -3.29634       -2.57378        1.32915
H         -3.74357       -1.87155        2.03188
H         -4.03971       -2.96197        0.63321
H         -2.79702       -3.38761        1.85572
H          0.16288       -1.72375       -2.20896
H          1.46555       -0.70178       -2.85932
H          2.25581       -3.00321       -2.28769
H          3.10532       -1.75681       -1.35650
H          0.79142       -3.22472       -0.27494
H          2.36596       -3.47255        0.14815
H          0.02085        0.35341       -1.11289
H          0.65006       -0.72423       -0.02709
C          1.10885       -1.23066       -1.97310
C          2.13544       -2.25027       -1.49468
N          0.84828       -0.23866       -0.91024
N          1.70904       -2.78966       -0.20843
H          1.68315        0.41250       -0.75219
H          3.69920        2.11632        1.55386
H          2.06980        1.43407        1.56904
H          3.69497       -0.15606        2.52149
H          2.97018       -0.81578        1.05219
H          5.65036        0.36807        1.21786
H          5.25526       -1.15790        0.80094
H          2.46608        2.39367       -0.54169
H          3.81512        1.44411       -0.78505
C          3.06006        1.33520        1.11410
C          3.64340       -0.03702        1.42865
N          2.90716        1.50138       -0.33408
N          4.93906       -0.19578        0.76214
