43
2msa1eda1tma_112.log	Energy: -1062682.4156944
S         -2.67944       -0.52694       -0.44147
O         -3.10794        0.49707        0.51848
O         -2.46836       -1.88096        0.10590
O         -1.45314       -0.08003       -1.22455
C         -3.95966       -0.66866       -1.67674
H         -4.86883       -1.00038       -1.17455
H         -4.10729        0.31116       -2.13128
H         -3.64171       -1.39823       -2.42134
S          0.16046        2.50499        0.45077
O          1.08262        3.61868        0.33665
O          0.67848        1.22712        0.94639
O         -0.47345        2.28240       -0.98119
H         -0.92022        1.37333       -1.05999
C         -1.23214        2.96518        1.45134
H         -0.86173        3.11347        2.46641
H         -1.64029        3.89195        1.04801
H         -1.96370        2.15434        1.40322
H         -0.46457       -2.95065       -0.66159
H          1.29223       -3.21822       -0.80323
H          0.10624       -4.52930        1.05236
H          1.48928       -3.57348        1.60737
H         -1.28600       -2.59973        1.78411
H         -0.31471       -3.05156        3.05439
H          0.03382       -0.81763       -0.56536
H          0.45608       -1.12319        0.98518
C          0.49931       -2.81671       -0.16826
C          0.47342       -3.50363        1.20012
N          0.70291       -1.35927        0.01222
N         -0.32430       -2.69312        2.10857
H          1.69168       -1.03225       -0.18404
N          3.30242       -0.45281       -0.56655
C          3.10757        0.58196       -1.58212
H          2.65677        0.14102       -2.47611
H          2.43621        1.35183       -1.19749
H          4.05999        1.05756       -1.86733
C          3.81481        0.12740        0.67500
H          3.10925        0.87813        1.03710
H          3.91096       -0.65639        1.43273
H          4.80209        0.59555        0.52853
C          4.17729       -1.51186       -1.05661
H          4.26843       -2.29675       -0.29947
H          3.75479       -1.95127       -1.96526
H          5.18830       -1.13805       -1.29073
