40
2msa1dma1eda_280.log	Energy: -1038018.4998153
S         -0.89174        2.55097       -0.25025
O         -1.24056        3.85518       -0.77408
O          0.50352        2.30866        0.12559
O         -1.28316        1.44653       -1.32401
C         -1.91520        2.16553        1.15328
H         -1.64363        1.17023        1.50932
H         -1.69889        2.92892        1.90165
H         -2.96059        2.21130        0.84776
S         -1.88154       -1.57627        0.18482
O         -0.78095       -0.98097        1.00515
O         -1.40479       -2.61602       -0.73660
O         -2.66906       -0.48921       -0.48625
H         -1.88180        0.67959       -0.97499
C         -3.02136       -2.32910        1.32630
H         -2.49492       -3.12665        1.85112
H         -3.36687       -1.56709        2.02473
H         -3.85446       -2.73212        0.75033
N          3.04951        0.93726        0.56125
C          4.48289        1.01888        0.30540
C          2.72823        0.30619        1.84020
H          2.62851        1.86317        0.53697
H          4.89667        0.00836        0.22057
H          4.65868        1.53975       -0.63882
H          5.02968        1.54243        1.10363
H          3.08326       -0.73081        1.83150
H          3.19288        0.81497        2.69674
H          1.64360        0.30284        1.97982
H          0.68736       -2.01495       -2.14761
H          2.19777       -1.16799       -2.58057
H          2.74228       -3.28757       -1.49559
H          3.25353       -1.96453       -0.46157
H          1.39616       -2.37322        0.95718
H          0.75540       -3.45312       -0.06526
H          0.60025        0.33135       -1.53701
H          0.48664       -0.61645       -0.20888
C          1.57844       -1.52206       -1.75147
C          2.36910       -2.48091       -0.85558
N          1.13178       -0.33962       -0.97750
N          1.63909       -3.06517        0.25538
H          1.94580        0.17447       -0.51506
