32
2msa2ma_49.log	Energy: -953967.1657392
S          1.22185        1.88218        0.11202
O          2.35869        2.76996       -0.01082
O          1.49808        0.43821        0.19949
O          0.26997        2.16022       -1.10574
H         -0.61101        1.64520       -1.04849
C          0.24107        2.32106        1.52914
H          0.87944        2.20481        2.40594
H         -0.06855        3.35959        1.41264
H         -0.61375        1.64082        1.57609
S         -2.32178       -0.25476       -0.21707
O         -2.00308        1.02615       -0.91527
O         -1.74044       -0.31144        1.14496
O         -1.97713       -1.45476       -1.02535
H         -0.44404       -2.04379       -0.41486
C         -4.09514       -0.25227       -0.05198
H         -4.38002        0.61940        0.53732
H         -4.52924       -0.20138       -1.05039
H         -4.38904       -1.17336        0.45144
N          2.85972       -1.90062       -1.11839
H          3.16414       -2.32059       -1.99031
C          3.91554       -1.97875       -0.10232
H          4.85594       -1.50406       -0.40612
H          3.56501       -1.47664        0.80306
H          4.11589       -3.02677        0.13689
H          2.64828       -0.92171       -1.30431
N          0.38915       -2.12136        0.20694
H          1.26480       -2.27524       -0.35745
C          0.16252       -3.12020        1.26615
H          1.02108       -3.14128        1.93829
H         -0.73411       -2.83858        1.81848
H          0.02734       -4.10247        0.81316
H          0.49206       -1.17442        0.59552
