34
2msa1a1eda_82.log	Energy: -988703.9777336
S         -1.17009       -2.02903        0.01252
O         -2.14022       -1.17911       -0.72637
O         -1.17921       -1.83960        1.46942
O          0.20911       -1.88322       -0.58188
C         -1.62862       -3.71739       -0.32355
H         -2.64102       -3.86887        0.05153
H         -1.58518       -3.87668       -1.40074
H         -0.92457       -4.36768        0.19560
S          2.65791        0.52460       -0.05301
O          2.88280        1.51477        0.98863
O          1.86363        0.92497       -1.22160
O          2.05405       -0.75542        0.60124
H          1.25548       -1.21670        0.08471
C          4.23395       -0.04497       -0.64901
H          4.74366        0.81026       -1.09361
H          4.79666       -0.43206        0.20021
H          4.05887       -0.82265       -1.39225
N         -0.25032        1.07576        1.95039
H          0.72018        1.26253        2.18803
H         -0.44195        0.08520        2.10802
H         -0.85495        1.61948        2.55605
H         -1.24546        3.36693       -1.03392
H         -1.83326        2.30674       -2.32781
H         -3.77817        3.08941       -1.14515
H         -3.55602        1.38356       -0.74684
H         -3.01743        3.63698        1.02847
H         -3.83312        2.24732        1.32745
H          0.02558        1.28197       -1.14545
H         -0.73280        1.37576        0.33610
C         -1.74934        2.41895       -1.24345
C         -3.13254        2.38289       -0.60328
N         -0.91176        1.32279       -0.72187
N         -3.04517        2.64314        0.82992
H         -1.37277        0.40144       -0.87140
