37
2msa1ma1eda_336.log	Energy: -1013358.6547595
S          1.45208       -1.49142       -0.57276
O          0.66532       -1.04420        0.63654
O          2.84887       -1.78206       -0.21498
O          1.29271       -0.53357       -1.69305
C          0.69191       -3.01158       -1.10919
H          0.77241       -3.73863       -0.30078
H         -0.35217       -2.80388       -1.34717
H          1.22679       -3.35679       -1.99402
S         -2.63219       -0.24582        0.43186
O         -2.49066       -0.15134       -1.01953
O         -2.37584        0.96561        1.20433
O         -1.77917       -1.44532        0.98545
H         -0.76479       -1.28577        0.83369
C         -4.25664       -0.85316        0.81770
H         -4.40844       -1.79566        0.29276
H         -4.33014       -0.98511        1.89669
H         -4.96439       -0.09951        0.47125
N          3.58602        0.85187        1.04213
H          3.64545       -0.07268        0.60582
C          2.97893        0.70578        2.37403
H          3.57791        0.08864        3.05389
H          2.84095        1.69128        2.82900
H          2.00225        0.23126        2.25403
H          4.53151        1.21362        1.11762
H          0.10399        1.37026        0.59269
H          0.80847        2.93271        1.03205
H         -1.48267        3.08964       -0.00968
H         -0.24712        4.05615       -0.83898
H         -1.21046        1.44197       -1.76760
H         -1.36294        2.88561       -2.51808
H          1.44147        1.15786       -1.24860
H          1.94228        2.74846       -1.23350
C          0.48140        2.31323        0.19320
C         -0.57975        3.03028       -0.63258
N          1.66749        1.97160       -0.63550
N         -0.76142        2.34691       -1.90625
H          2.48196        1.65345       -0.01835
