43
2msa1eda1tma_98.log	Energy: -1062680.3212875
S          0.78018        2.52529       -0.21351
O          2.03167        1.76441       -0.39483
O          0.49233        2.98257        1.14602
O         -0.37995        1.73355       -0.81144
C          0.88444        3.97198       -1.25479
H          1.71469        4.58010       -0.89429
H          1.05709        3.65159       -2.28214
H         -0.05550        4.51763       -1.17074
S         -2.69433       -0.51126       -0.00053
O         -1.93510       -1.25313        1.00378
O         -2.40917       -0.84483       -1.39496
O         -2.56698        1.03612        0.23507
H         -1.67218        1.40066       -0.12963
C         -4.42925       -0.70843        0.32117
H         -4.65283       -1.76824        0.19651
H         -4.62703       -0.38819        1.34375
H         -4.98496       -0.10578       -0.39629
H          1.46667       -0.79297       -2.80937
H          2.54080       -0.37932       -1.46487
H          3.10264       -2.62974       -2.40542
H          2.55020       -2.76600       -0.73473
H          0.91940       -3.39896       -3.08724
H          1.28056       -4.35880       -1.81086
H          0.19903        0.06443       -1.01042
H         -0.12472       -1.57780       -1.11740
C          1.76467       -1.07209       -1.79405
C          2.22510       -2.52277       -1.75197
N          0.60035       -0.88683       -0.90627
N          1.10924       -3.40100       -2.09064
H          0.89200       -0.98060        0.12547
N          1.47550       -1.10381        1.71792
C          1.22594       -2.47688        2.14253
H          0.15291       -2.67853        2.09268
H          1.74421       -3.17397        1.47522
H          1.57798       -2.65889        3.17169
C          2.90169       -0.78775        1.70277
H          3.43301       -1.49655        1.05792
H          3.03810        0.22047        1.30317
H          3.34523       -0.84569        2.71078
C          0.74503       -0.15777        2.56749
H          0.93102        0.86518        2.23425
H         -0.32495       -0.35908        2.49077
H          1.05914       -0.25101        3.62064
