38
2msa2dma_209.log	Energy: -1003272.7527010
S         -2.78213        0.36895        0.22153
O         -2.88930       -0.70739       -0.76105
O         -2.18417        1.61941       -0.23373
O         -2.06204       -0.14970        1.52588
H         -1.08752       -0.36535        1.30969
C         -4.38767        0.69105        0.90962
H         -5.01304        1.05290        0.09294
H         -4.78228       -0.23956        1.31625
H         -4.28611        1.45021        1.68450
S          1.54951       -1.25927        0.97725
O          1.33503       -2.53682        1.64715
O          0.28247       -0.50664        0.66881
O          2.33446       -1.34766       -0.30220
H          1.36724       -1.14719       -1.51297
C          2.49896       -0.20591        2.05348
H          1.95417       -0.12223        2.99486
H          3.46278       -0.68932        2.21759
H          2.62222        0.77619        1.58526
N          2.56851        2.69534        0.24347
C          1.12067        2.79834        0.11557
C          3.19518        2.03910       -0.89181
H          2.97076        3.61677        0.37108
H          0.67300        1.80200        0.16682
H          0.71632        3.37898        0.94822
H          0.79606        3.27312       -0.82741
H          2.90016        0.98374       -0.91007
H          2.93012        2.49594       -1.86420
H          4.28292        2.07095       -0.78374
N          0.69293       -1.10557       -2.34674
C          0.13501        0.26333       -2.48023
C         -0.33802       -2.15719       -2.14656
H          1.25152       -1.33096       -3.16871
H         -0.38546        0.51560       -1.55781
H          0.95552        0.96370       -2.63957
H         -0.56356        0.29134       -3.31780
H         -0.93696       -1.88488       -1.27830
H         -0.97960       -2.20921       -3.02750
H          0.16705       -3.10806       -1.97577
