42
2msa2eda_281.log	Energy: -1072754.6323362
S          0.75475        2.35021        0.35778
O          0.28577        3.57548        0.96976
O         -0.26496        1.40806       -0.14408
O          1.67092        1.60908        1.38826
C          1.83961        2.71929       -0.99853
H          1.24722        3.23840       -1.75316
H          2.63201        3.36618       -0.62157
H          2.23630        1.77391       -1.37973
S          2.45477       -1.38350       -0.47324
O          2.72938       -0.34920       -1.47839
O          1.40387       -2.36476       -0.84700
O          2.15279       -0.79643        0.88463
H          1.89025        0.63304        1.12013
C          3.95190       -2.32384       -0.24671
H          4.74018       -1.63488        0.05670
H          3.77469       -3.07563        0.52219
H          4.19561       -2.79468       -1.19929
H         -1.05636       -2.62028        1.94347
H          0.19865       -1.36107        2.08109
H         -1.62061       -0.80153        3.58281
H         -1.61066        0.37023        2.26242
H         -3.84138       -0.56763        2.82051
H         -3.44870       -0.96357        1.28314
H         -0.13030       -1.86127       -0.18312
H         -1.80900       -1.52590       -0.11492
C         -0.82771       -1.56625        1.77201
C         -1.81558       -0.68286        2.51308
N         -0.87668       -1.32016        0.30628
N         -3.19159       -1.10266        2.25572
H         -0.65683       -0.32788        0.11506
H         -4.83639       -0.40045       -2.16151
H         -4.91454       -0.37391       -0.39792
H         -3.93759        1.72907       -1.33115
H         -2.82119        0.89840       -0.25631
H         -2.58363        1.07594       -3.14294
H         -1.43703        1.17851       -1.96396
H         -3.96796       -2.45140       -1.12136
H         -2.82357       -1.65635       -1.99464
C         -4.22321       -0.40628       -1.24768
C         -3.31955        0.82571       -1.22911
N         -3.39395       -1.61519       -1.15142
N         -2.28442        0.69984       -2.25093
