44
2msa2tma_19.log	Energy: -1052602.0786911
S          0.22073        1.85206        0.48926
O          0.29169        0.97496       -0.72441
O          1.52680        2.10681        1.10458
O         -0.81191        1.32124        1.43086
C         -0.41458        3.41727       -0.08335
H          0.29924        3.82523       -0.79947
H         -1.38177        3.24870       -0.55749
H         -0.51492        4.07798        0.77801
S          3.32677       -0.79868       -0.66502
O          4.28627       -1.57433       -1.42384
O          2.38938       -1.49724        0.21842
O          2.50345        0.06846       -1.70216
H          1.65619        0.43831       -1.29329
C          4.18170        0.42639        0.29903
H          4.77039       -0.10744        1.04625
H          4.83114        0.98720       -0.37311
H          3.43485        1.07380        0.76481
N         -3.83600       -0.40512       -0.92361
C         -3.15288        0.87724       -1.03051
H         -3.04800        1.32295       -0.03671
H         -2.14531        0.73454       -1.43203
H         -3.69888        1.58453       -1.68296
C         -3.91455       -1.06665       -2.21670
H         -2.91022       -1.20200       -2.62948
H         -4.37722       -2.05187       -2.10396
H         -4.50733       -0.48743       -2.94885
C         -5.15923       -0.24313       -0.34295
H         -5.63685       -1.22044       -0.22088
H         -5.07679        0.22667        0.64239
H         -5.81894        0.38795       -0.96715
N         -1.01538       -1.34927        1.38366
C          0.04124       -1.72464        2.35722
H          1.01233       -1.49364        1.91847
H         -0.11094       -1.15057        3.27170
H         -0.03242       -2.79515        2.56255
C         -2.37905       -1.58610        1.91219
H         -2.51399       -0.98826        2.81452
H         -3.09162       -1.28807        1.13939
H         -2.49296       -2.64780        2.14453
C         -0.81651       -2.00870        0.06730
H         -1.58283       -1.63713       -0.61223
H          0.18242       -1.76735       -0.29374
H         -0.92008       -3.08829        0.20187
H         -0.92832       -0.30489        1.25774
