41
2msa1dma1tma_12.log	Energy: -1027958.5338087
S          1.82329       -1.25370       -0.73582
O          1.76154       -2.70809       -0.55612
O          3.15265       -0.62817       -0.83225
O          1.01012       -0.56568        0.36396
H          1.29868        0.98260        0.56463
C          0.94360       -0.85619       -2.23768
H          1.42103       -1.39610       -3.05615
H         -0.10446       -1.13370       -2.11795
H          1.00273        0.22079       -2.39744
S         -2.24458        0.87309       -0.42468
O         -1.22714        1.91146       -0.70413
O         -2.32320        0.52400        1.03078
O         -2.13088       -0.33577       -1.26974
H         -0.27274       -1.47067        0.80452
C         -3.82303        1.61543       -0.81924
H         -3.95044        2.50602       -0.20348
H         -3.81709        1.87707       -1.87781
H         -4.60588        0.88630       -0.60916
N         -1.13627       -1.93655        1.18587
C         -0.84848       -2.37447        2.56225
C         -1.55785       -3.01809        0.27135
H         -1.81765       -1.14487        1.18399
H         -0.03818       -3.10484        2.54105
H         -0.54489       -1.50626        3.14786
H         -1.74251       -2.82022        3.00220
H         -0.72205       -3.70534        0.13182
H         -2.41924       -3.53591        0.69834
H         -1.83192       -2.55549       -0.67626
N          1.69462        1.95636        0.72321
C          0.74260        2.71297        1.57144
H         -0.21281        2.75789        1.04721
H          0.61907        2.18280        2.51657
H          1.14705        3.71201        1.75383
C          3.00704        1.75107        1.38209
H          2.84237        1.27309        2.34843
H          3.60492        1.09166        0.75073
H          3.49474        2.71906        1.52141
C          1.84925        2.57076       -0.61984
H          2.52877        1.94413       -1.19987
H          0.86428        2.60529       -1.08660
H          2.26484        3.57525       -0.50551
