42
2msa2eda_66.log	Energy: -1072769.7258842
S          2.87633       -0.45111       -0.77405
O          2.54949       -1.77932       -0.18007
O          3.72130        0.40118        0.07734
O          1.62356        0.23040       -1.23249
C          3.80508       -0.78913       -2.25914
H          4.71977       -1.30790       -1.97148
H          3.19444       -1.41257       -2.91218
H          4.03607        0.16220       -2.73862
S         -2.85577        0.53510       -0.76466
O         -3.16432       -0.19191        0.48827
O         -1.83638       -0.16838       -1.59304
O         -2.49945        1.96460       -0.54607
C         -4.35397        0.55422       -1.73256
H         -4.65058       -0.47798       -1.91965
H         -5.12005        1.07827       -1.16077
H         -4.14794        1.07207       -2.66926
H         -0.45683        2.74621        1.92695
H         -0.66946        1.02304        1.60234
H          1.28698        1.60413        3.17757
H          1.72757        0.59589        1.80603
H          2.75425        3.13068        2.36904
H          3.09704        2.12925        1.10366
H         -0.79014        2.25431       -0.39042
H          0.74289        2.98103       -0.06988
C          0.01364        1.86733        1.47964
C          1.38972        1.59947        2.08736
N          0.15912        2.14758        0.02897
N          2.34858        2.59574        1.61291
H          0.67568        1.37912       -0.46449
H         -2.08053       -2.50757        0.01252
H         -0.74108       -3.68346       -0.01223
H         -1.98560       -3.49883        2.22067
H         -0.23780       -3.23912        2.34763
H         -2.18878       -1.03816        2.15740
H         -1.26100       -1.43713        3.47779
H         -0.56312       -1.11554       -0.77921
H         -0.20920       -0.99256        0.83343
C         -1.09756       -2.74828        0.42134
C         -1.16737       -2.81870        1.94872
N         -0.18863       -1.64354        0.03396
N         -1.31385       -1.46138        2.46745
H          0.81110       -1.90008       -0.11437
