43
2msa1eda1tma_269.log	Energy: -1062666.1465388
S          1.28469       -1.71349       -0.15561
O          0.49094       -0.75522        0.67853
O          2.36804       -2.36074        0.60610
O          1.82088       -1.02495       -1.37891
H          3.32177       -0.62518       -0.97157
C          0.15522       -2.95766       -0.72840
H         -0.24548       -3.47075        0.14706
H         -0.64490       -2.46298       -1.28180
H          0.71655       -3.64842       -1.35742
S         -3.07452       -0.87957        0.11320
O         -4.07099       -1.89360        0.40086
O         -2.33205       -0.93901       -1.14283
O         -2.03518       -0.86487        1.32091
H         -1.08528       -0.81707        1.00448
C         -3.82094        0.72420        0.26125
H         -4.58916        0.78615       -0.51109
H         -4.27072        0.79665        1.25178
H         -3.03765        1.47691        0.10747
H          5.11039        1.49661        0.16315
H          4.17902        1.59739       -1.35705
H          2.99560        2.70357        0.60465
H          2.06108        1.40291       -0.13557
H          3.06407        1.44585        2.52413
H          2.03453        0.36244        1.80543
H          5.02696       -0.69302       -0.80037
H          4.01025       -0.65753        0.53224
C          4.19038        1.19298       -0.34275
C          2.95442        1.61922        0.45739
N          4.17436       -0.29017       -0.42049
N          2.90894        0.87232        1.70674
N         -1.20467        2.66060       -0.28807
C         -1.59114        4.01020       -0.65049
H         -2.21451        3.98955       -1.54965
H         -2.17110        4.46388        0.15944
H         -0.71669        4.65970       -0.85362
C         -0.44754        2.63748        0.94932
H         -1.05665        3.03605        1.76685
H         -0.17198        1.60768        1.19057
H          0.47947        3.24251        0.88717
C         -0.49243        1.99791       -1.36870
H         -0.23825        0.97574       -1.08018
H         -1.12986        1.94727       -2.25576
H          0.43840        2.53489       -1.64210
