31
2msa1tma_04.log	Energy: -943132.4063992
S         -1.69325       -1.47260       -0.08287
O         -2.58910       -2.17930       -0.98907
O         -2.31872       -0.71126        1.01395
O         -0.75258       -0.51773       -0.85156
C         -0.58612       -2.66305        0.65177
H         -1.19511       -3.33414        1.25833
H         -0.09560       -3.21612       -0.15011
H          0.14510       -2.13301        1.26416
N         -1.26692        1.99235       -0.02467
C         -0.78042        2.07989        1.37754
H         -1.26667        1.28637        1.94530
H          0.29953        1.93092        1.37567
H         -1.03210        3.06430        1.77939
C         -0.55066        2.92814       -0.92489
H          0.51627        2.71288       -0.86647
H         -0.90817        2.77330       -1.94370
H         -0.75522        3.95413       -0.60998
C         -2.73998        2.15529       -0.10649
H         -3.05010        2.00609       -1.14146
H         -3.20001        1.39291        0.52198
H         -3.00471        3.16181        0.22583
H         -1.05089        1.01040       -0.35402
S          2.38619       -0.02151        0.07324
O          2.00844       -0.58016        1.36567
O          2.16156        1.41330       -0.11528
O          1.71985       -0.83036       -1.10028
H          0.68680       -0.75706       -1.04281
C          4.09199       -0.38444       -0.26047
H          4.23924       -1.46003       -0.16890
H          4.32953       -0.03546       -1.26483
H          4.67898        0.15124        0.48614
