34
2msa1a1eda_229.log	Energy: -988697.5994450
S          2.57688       -0.70210       -0.13511
O          1.78184       -1.93690       -0.22137
O          2.75610       -0.14381        1.19853
O          2.03660        0.36603       -1.13564
H          0.99726        0.51618       -1.12875
C          4.16887       -1.00723       -0.85858
H          4.67820       -1.72478       -0.21480
H          4.02353       -1.41300       -1.85900
H          4.71199       -0.06305       -0.88979
S         -1.37404        1.41372       -0.38343
O         -2.75962        1.27958       -0.85013
O         -0.41847        0.68123       -1.29515
O         -1.16864        0.94907        1.02330
H         -0.87154       -0.74242        0.82553
C         -0.92141        3.13046       -0.43799
H         -0.95765        3.44644       -1.48088
H         -1.65273        3.68005        0.15589
H          0.07767        3.23284       -0.00303
N          1.35180        2.59388        1.88556
H          2.05391        1.87249        1.74210
H          0.48532        2.10695        2.10286
H          1.62342        3.13701        2.69769
H         -1.93375       -3.51906        0.80021
H         -1.87127       -2.42134        2.20454
H         -4.14992       -2.44763        1.01792
H         -3.40738       -0.84760        1.12057
H         -3.98110       -2.28062       -1.26101
H         -3.40070       -0.73248       -1.08473
H          0.04045       -2.12467        0.51280
H         -1.16118       -1.64094       -0.53001
C         -1.99979       -2.47688        1.12189
C         -3.31650       -1.83588        0.65796
N         -0.90586       -1.72645        0.46697
N         -3.29728       -1.70239       -0.79361
