41
2msa1dma1tma_04.log	Energy: -1027958.9523073
S         -2.83000       -0.41612       -0.23094
O         -3.16445        0.71965       -1.10408
O         -2.02256        0.01306        0.96376
O         -2.17220       -1.55783       -0.91783
C         -4.36396       -1.04856        0.42507
H         -4.86948       -0.23824        0.95064
H         -4.96736       -1.39768       -0.41315
H         -4.13866       -1.86934        1.10621
S          2.99836        0.17892       -0.16746
O          3.08555        1.64271       -0.27411
O          2.66459       -0.53149       -1.41890
O          2.06038       -0.24767        0.93952
C          4.61197       -0.39598        0.34649
H          5.32880       -0.11289       -0.42479
H          4.86089        0.08219        1.29404
H          4.57838       -1.48018        0.45808
N          0.29550       -2.13360        0.17998
C         -0.17184       -2.68547        1.46760
C          0.98511       -3.11049       -0.68804
H         -0.54127       -1.76997       -0.32117
H          0.69132       -3.01061        2.05056
H         -0.71093       -1.89757        1.99393
H         -0.83939       -3.52772        1.27673
H          1.81598       -3.55294       -0.13548
H          0.27719       -3.88519       -0.98760
H          1.37759       -2.57853       -1.55391
H          0.95356       -1.33574        0.39128
N         -0.68409        2.25983        0.23944
C         -1.69949        3.33530        0.14692
H         -2.48296        3.00304       -0.53486
H         -2.12277        3.50690        1.13742
H         -1.22092        4.24637       -0.21884
C          0.36681        2.55309        1.24852
H         -0.12334        2.76276        2.20058
H          1.02130        1.68477        1.33405
H          0.95095        3.41338        0.91771
C         -0.11354        1.94573       -1.09936
H          0.54523        1.08423       -1.01399
H         -0.94052        1.72233       -1.77362
H          0.47151        2.79866       -1.44620
H         -1.18942        1.39441        0.56059
