43
2msa1eda1tma_44.log	Energy: -1062689.8510604
S         -2.47259        0.41203        0.68229
O         -2.46498       -0.92045        1.34673
O         -2.41578        0.32051       -0.79835
O         -1.42990        1.32493        1.21952
C         -4.04865        1.13641        1.10065
H         -4.11464        2.11467        0.62339
H         -4.83349        0.47639        0.73080
H         -4.10438        1.23218        2.18500
S          2.95482       -0.45293        0.28653
O          3.42140        0.37007       -0.84526
O          2.90778       -1.90801        0.05009
O          1.62851        0.04954        0.80530
C          4.11719       -0.18701        1.61800
H          5.09095       -0.54745        1.28484
H          4.15924        0.88073        1.83524
H          3.77984       -0.74422        2.49213
H         -0.40092       -1.30584       -1.34025
H          0.88800       -2.52552       -1.20727
H         -1.00846       -3.52417       -2.35451
H         -0.91655       -4.27433       -0.77525
H         -2.75675       -2.94394       -0.05965
H         -2.76164       -2.08567       -1.42577
H          0.58768       -1.22848        0.77032
H         -1.00546       -1.75221        0.95185
C         -0.12558       -2.26456       -0.89482
C         -1.14908       -3.33073       -1.28528
N         -0.07215       -2.03031        0.57439
N         -2.54624       -3.00613       -1.05042
H          0.28632       -2.84881        1.06215
N          0.24857        2.33264       -0.73047
C         -0.86874        3.28688       -0.94419
H         -1.75093        2.71664       -1.23533
H         -1.06244        3.81211       -0.00953
H         -0.58332        3.99001       -1.72953
C          1.48762        3.02718       -0.29543
H          1.30294        3.49012        0.67429
H          2.28849        2.29236       -0.22686
H          1.73697        3.78847       -1.03803
C          0.47824        1.50160       -1.94265
H          1.31898        0.83466       -1.75138
H         -0.44111        0.94922       -2.14036
H          0.71564        2.16718       -2.77588
H         -0.06414        1.70544        0.04205
