40
2msa1dma1eda_411.log	Energy: -1038011.3315926
S         -1.77826       -1.61973        0.43212
O         -2.13325       -1.61883       -1.00350
O         -2.59103       -0.70002        1.25392
O         -0.30720       -1.38740        0.64688
C         -2.08317       -3.27373        1.03514
H         -3.14429       -3.48547        0.90112
H         -1.47826       -3.96933        0.45297
H         -1.81290       -3.31136        2.09051
S          2.91942       -0.32295       -0.59385
O          2.10627        0.64865       -1.31703
O          3.18416       -0.12915        0.81793
O          4.35610       -0.37268       -1.35445
H          4.33939        0.28619       -2.06337
C          2.31580       -1.96184       -0.86823
H          1.33908       -2.00714       -0.36919
H          2.21604       -2.11184       -1.94295
H          3.02819       -2.66030       -0.42912
N         -2.45266        1.35424       -1.44104
C         -2.31640        1.94864       -2.76479
C         -3.65138        1.79149       -0.72964
H         -2.47323        0.33349       -1.51673
H         -2.18957        3.03281       -2.67056
H         -1.43015        1.54131       -3.25840
H         -3.19110        1.76286       -3.40661
H         -3.57633        2.86234       -0.50723
H         -4.57083        1.62799       -1.31187
H         -3.72416        1.23226        0.20617
H         -0.91147        2.93241        1.55004
H         -1.46204        1.29204        2.01007
H          0.39437        2.11845        3.52246
H          0.83552        0.66419        2.62855
H          2.02974        3.24893        2.38792
H          2.55816        1.79592        1.80826
H         -1.08872        1.49794       -0.41207
H          0.57752        1.81701       -0.03556
C         -0.61981        1.88227        1.64153
C          0.61858        1.73238        2.52165
N         -0.28854        1.37883        0.29180
N          1.75574        2.40857        1.89720
H         -0.12755        0.35098        0.35363
