37
2msa1ma1eda_405.log	Energy: -1013353.9263752
S          2.08852       -1.02372       -0.39885
O          0.83313       -1.15850       -1.20784
O          1.82327       -0.94064        1.05098
O          2.90840        0.10489       -0.91065
H          1.81696        1.43642       -1.08514
C          3.02371       -2.50928       -0.69125
H          2.44129       -3.35240       -0.31929
H          3.19354       -2.59880       -1.76397
H          3.96788       -2.42331       -0.15338
S         -2.45827       -0.20103       -0.85717
O         -3.42690       -0.55775       -1.87367
O         -1.57603        0.94680       -1.13417
O         -1.57270       -1.44718       -0.47989
H         -0.58904       -1.33261       -0.73232
C         -3.28565        0.10875        0.67896
H         -3.93525        0.97070        0.52173
H         -3.87669       -0.77447        0.92374
H         -2.51489        0.29670        1.43592
N         -0.68836       -0.26385        2.63602
H          0.14704       -0.45313        2.08336
C         -1.30402       -1.53424        3.02166
H         -0.65829       -2.18501        3.62765
H         -2.22350       -1.34509        3.58597
H         -1.57684       -2.07928        2.11367
H         -0.38237        0.24198        3.46099
H         -0.23240        1.79904        1.07842
H          0.14115        3.43830        1.59985
H         -0.34168        3.49663       -0.76434
H          1.40057        3.83857       -0.51777
H          0.16040        1.28587       -1.35128
H          1.06939        2.28364       -2.30804
H          1.95437        2.46407        2.48446
H          1.99092        1.20070        1.44135
C          0.52130        2.59647        1.01269
C          0.61378        3.08699       -0.42857
N          1.83083        2.20269        1.51536
N          0.94828        1.96321       -1.34916
