32
2msa2ma_232.log	Energy: -953948.2214166
S         -1.68417        1.01985        0.50650
O         -1.24374        2.38628        0.24914
O         -1.11388        0.02014       -0.48581
O         -3.16965        0.83106        0.55204
H         -3.65650       -0.24100       -0.60112
C         -1.06084        0.51784        2.09574
H          0.02992        0.51509        2.04804
H         -1.42664        1.23325        2.83264
H         -1.43126       -0.48450        2.31214
S          2.21006       -1.38621        0.26489
O          2.74496       -2.66216        0.69491
O          1.99046       -0.32617        1.24687
O          0.82596       -1.69406       -0.46509
H          0.19588       -0.91852       -0.41953
C          3.20705       -0.73747       -1.05514
H          4.20065       -0.55986       -0.64046
H          3.24976       -1.48848       -1.84379
H          2.74709        0.20172       -1.38504
N          1.76191        2.16243       -0.75038
H          0.75569        2.31044       -0.75888
C          2.45730        3.41493       -1.03350
H          2.20350        4.24102       -0.35267
H          3.53897        3.25434       -0.98003
H          2.22592        3.73644       -2.05336
H          1.97838        1.84182        0.19002
N         -3.42539       -0.97889       -1.32831
H         -3.91254       -0.79667       -2.20224
C         -3.64606       -2.34739       -0.81057
H         -3.28765       -3.07887       -1.53415
H         -3.08414       -2.44697        0.11747
H         -4.70750       -2.49715       -0.61609
H         -2.40687       -0.77315       -1.41989
