43
2msa1eda1tma_106.log	Energy: -1062681.8687697
S         -2.66235        0.70062       -0.00690
O         -2.59595        1.95759       -0.73663
O         -1.69556        0.52841        1.08955
O         -2.61624       -0.53142       -0.96290
C         -4.29256        0.49434        0.66618
H         -4.45222        1.31171        1.36986
H         -5.00884        0.54565       -0.15354
H         -4.33808       -0.47057        1.16971
S          0.62459       -2.02972       -1.01036
O          0.03051       -2.59975        0.21144
O          1.92848       -1.36443       -0.78084
O         -0.32440       -1.10818       -1.73133
H         -1.64679       -0.79784       -1.25594
C          0.92283       -3.36445       -2.15283
H         -0.02737       -3.86192       -2.34743
H          1.33509       -2.94236       -3.06925
H          1.63193       -4.05085       -1.68955
H          2.38392        0.63855        2.85638
H          0.79072        1.42485        3.03642
H          0.95686       -0.62136        4.42124
H         -0.30948       -0.77214        3.19636
H          1.52795       -2.62869        3.54667
H          1.02283       -2.28998        2.02446
H          1.43923        1.31150        0.66453
H          1.59106       -0.34745        0.78151
C          1.31201        0.53511        2.67334
C          0.77957       -0.72612        3.34628
N          1.10562        0.45865        1.21080
N          1.48336       -1.89963        2.84651
H          0.09540        0.36022        1.01263
N          1.89204        2.39646       -0.60780
C          0.80066        2.20540       -1.56810
H          0.67093        1.13879       -1.77311
H         -0.13490        2.58912       -1.15254
H          1.00467        2.72531       -2.51836
C          2.04546        3.80230       -0.25388
H          1.10809        4.18283        0.16123
H          2.83154        3.91195        0.49937
H          2.31337        4.41921       -1.12836
C          3.13987        1.83455       -1.12443
H          3.93211        1.94954       -0.37798
H          2.99860        0.76909       -1.32604
H          3.45865        2.33745       -2.05236
