43
2msa1eda1tma_218.log	Energy: -1062675.4317086
S          2.71696        1.32446       -0.32643
O          4.05056        1.70684       -0.79827
O          2.67656        0.77329        1.05528
O          2.00845        0.37438       -1.26531
H          1.93589       -0.98393       -0.56035
C          1.70070        2.79185       -0.32382
H          2.12115        3.48810        0.40316
H          1.73442        3.22376       -1.32475
H          0.68038        2.50401       -0.06256
S         -1.40185        0.22053        1.16632
O         -1.27046        1.29807        0.16705
O         -1.08232       -1.13028        0.63310
O         -2.77776        0.20532        1.79153
H         -3.64418       -0.56741        0.78220
C         -0.26431        0.57583        2.48471
H          0.74309        0.62762        2.05673
H         -0.54694        1.53617        2.91696
H         -0.34410       -0.21620        3.23025
H         -5.48610       -0.63570       -1.60808
H         -5.64993        0.39026       -0.15654
H         -4.56151        1.56832       -2.16566
H         -3.58715        1.59105       -0.68846
H         -2.89138        0.32568       -3.12669
H         -1.99311        0.56004       -1.75256
H         -4.60029       -1.88149        0.20359
H         -3.31373       -1.28808       -0.70079
C         -4.94060       -0.07961       -0.84063
C         -3.98703        0.94366       -1.47399
N         -4.10402       -1.04117       -0.07978
N         -2.88600        0.23619       -2.11981
N          2.09212       -2.01923       -0.28829
C          1.85641       -2.21087        1.16196
H          2.47194       -1.48882        1.69869
H          0.80135       -2.01960        1.35851
H          2.12070       -3.23831        1.43003
C          1.14770       -2.80336       -1.11222
H          0.13608       -2.49728       -0.84221
H          1.33499       -2.57950       -2.16343
H          1.29536       -3.87041       -0.92337
C          3.50587       -2.27485       -0.64584
H          3.65135       -2.03252       -1.69865
H          4.13532       -1.61895       -0.04308
H          3.74719       -3.32382       -0.45392
