43
2msa1eda1tma_63.log	Energy: -1062681.9415232
S         -2.49419       -0.15183       -0.85167
O         -2.17406        1.35224       -1.05500
O         -2.97578       -0.41871        0.50214
O         -1.37693       -0.98764       -1.31156
C         -3.85146       -0.34602       -1.98194
H         -4.63798        0.34984       -1.69082
H         -3.49383       -0.13644       -2.98941
H         -4.19627       -1.37676       -1.89529
S          0.76204        2.25779        0.63629
O          2.21979        2.32590        0.53336
O          0.24373        1.22083        1.56670
O          0.12141        2.11129       -0.72612
H         -1.15218        1.64602       -0.86724
C          0.17709        3.81804        1.26966
H          0.62478        3.97048        2.25194
H          0.49002        4.59952        0.57711
H         -0.90985        3.77264        1.34280
H          1.03381       -3.24518        1.51522
H          1.68856       -1.85051        2.41664
H         -0.22511       -2.92037        3.60076
H         -0.57205       -1.24094        3.17819
H         -2.18895       -3.29007        2.57131
H         -2.12327       -1.95881        1.61862
H          1.43275       -1.34440        0.02974
H         -0.22085       -1.65473        0.15498
C          0.81991       -2.23597        1.87604
C         -0.42309       -2.24700        2.76109
N          0.60038       -1.36689        0.70208
N         -1.57313       -2.72518        2.00170
H          0.43039       -0.38347        1.00984
N          2.67414       -1.19278       -1.13595
C          3.80870       -0.48773       -0.53849
H          3.47354        0.47572       -0.14535
H          4.21875       -1.08449        0.28243
H          4.60960       -0.31451       -1.27640
C          3.06145       -2.51024       -1.62650
H          3.47295       -3.10573       -0.80573
H          2.18422       -3.02663       -2.02724
H          3.82148       -2.44644       -2.42320
C          2.05822       -0.39261       -2.19805
H          1.16687       -0.90388       -2.57185
H          1.74856        0.57594       -1.79928
H          2.75854       -0.23020       -3.03363
