40
2msa1dma1eda_337.log	Energy: -1038016.8927886
S          2.94295        0.24093        0.04986
O          2.73466        1.46156       -0.77534
O          3.07352       -1.01042       -0.70326
O          1.88018        0.16096        1.12077
H          0.83467       -0.87999        1.11575
C          4.47059        0.50170        0.92927
H          5.26606        0.58809        0.18878
H          4.38326        1.41890        1.51134
H          4.63978       -0.35757        1.57822
S         -0.56933       -1.86801       -0.25272
O         -1.86497       -2.48273       -0.03544
O          0.03460       -1.53759        1.16299
O         -0.52056       -0.65186       -1.07959
H         -0.24001        1.01367       -0.54809
C          0.56694       -3.03737       -0.94872
H          0.58779       -3.91017       -0.29607
H          0.18889       -3.29938       -1.93761
H          1.54410       -2.55052       -1.01232
N          0.06240        2.00387       -0.55697
C         -0.17964        2.61983        0.76927
C         -0.60564        2.67877       -1.68885
H          1.09438        1.93653       -0.72329
H         -1.21475        2.44382        1.06849
H          0.48462        2.13154        1.48206
H          0.04535        3.68588        0.70709
H         -1.68197        2.69791       -1.51421
H         -0.22010        3.69547       -1.77726
H         -0.39320        2.12084       -2.60073
H         -3.85980       -0.86453        1.09117
H         -4.56870        0.63613        1.71157
H         -3.42236        1.94585       -0.01295
H         -2.58639        0.50240       -0.59960
H         -4.62541       -0.37545       -1.35282
H         -5.49137        0.86946       -0.73533
H         -2.73767        0.43286        3.03796
H         -1.77988       -0.18941        1.88541
C         -3.68256        0.21261        1.22325
C         -3.51996        0.86142       -0.15410
N         -2.50835        0.50054        2.05286
N         -4.58591        0.60987       -1.11354
