30
2msa1eda_138.log	Energy: -953187.6684693
S         -2.62657       -0.03728       -0.02587
O         -1.82057        0.04732        1.17832
O         -2.61047        1.04902       -0.99161
O         -4.17204       -0.21499        0.45434
H         -4.70524        0.44418       -0.01253
C         -2.33634       -1.59457       -0.81772
H         -1.28133       -1.59811       -1.10878
H         -2.54343       -2.38252       -0.09338
H         -2.99549       -1.66709       -1.68233
S          1.75945       -1.51246       -0.07084
O          2.08523       -2.92426       -0.12827
O          0.74230       -0.99198       -0.99025
O          3.08473       -0.69214       -0.24482
H          2.93827        0.35717       -0.18085
C          1.24706       -1.09566        1.58560
H          0.30045       -1.60132        1.77710
H          2.01885       -1.43804        2.27513
H          1.10059       -0.01486        1.65002
H          2.08932        3.71192       -0.63345
H          2.12147        2.39899       -1.82591
H         -0.19258        2.86106       -1.00908
H          0.33315        1.21205       -0.67953
H          0.10408        3.35019        1.29527
H         -0.49697        1.82766        1.32699
H          3.81264        2.22492       -0.01207
H          2.56113        1.98452        1.03136
C          1.93403        2.63296       -0.77426
C          0.50049        2.25709       -0.40947
N          2.86746        1.86026        0.06463
N          0.29884        2.38865        1.03577
