35
2msa1a1tma_81.log	Energy: -978616.1161199
S          3.38335       -0.12618        0.47203
O          4.81491       -0.37104        0.40738
O          2.71056       -0.12551       -0.88635
O          2.99027        1.13869        1.17932
H          2.17727        2.02989        0.23386
C          2.62355       -1.45166        1.38999
H          2.84963       -2.38749        0.87743
H          3.06522       -1.44979        2.38687
H          1.54699       -1.27955        1.43938
S         -0.60752       -0.42071       -0.84145
O         -0.56514        1.00630       -1.21989
O         -0.61468       -0.69481        0.59108
O          0.56136       -1.18499       -1.54988
H          1.48777       -0.79324       -1.26194
C         -2.01349       -1.15983       -1.61317
H         -2.89155       -0.70268       -1.13471
H         -1.96824       -0.95004       -2.68141
H         -1.97365       -2.23176       -1.41862
N          1.65243        2.53835       -0.56530
H          0.77428        2.01730       -0.77336
H          2.25088        2.48204       -1.38735
H          1.45490        3.50786       -0.33509
N         -4.16679        0.13255        0.47869
C         -3.52357        1.35408        0.93895
H         -2.47048        1.15481        1.15306
H         -3.57692        2.11693        0.15660
H         -3.99790        1.75785        1.85337
C         -5.56284        0.36347        0.15049
H         -5.64008        1.13858       -0.61784
H         -6.00993       -0.55451       -0.24309
H         -6.15465        0.68664        1.02799
C         -4.02008       -0.93479        1.45705
H         -4.46637       -1.85542        1.06738
H         -2.95792       -1.11553        1.64325
H         -4.51163       -0.69473        2.41825
