41
2msa1dma1tma_09.log	Energy: -1027959.5730523
S         -1.86826        1.22882       -0.64177
O         -1.95005        2.68692       -0.50176
O         -3.13514        0.48569       -0.75747
O         -1.02453        0.63347        0.48631
H         -1.23055       -0.97437        0.62688
C         -0.92713        0.89001       -2.12121
H         -1.49066        1.28208       -2.96859
H          0.04749        1.37265       -2.03624
H         -0.76968       -0.18562       -2.20448
S          2.13960       -0.89400       -0.51236
O          1.05667       -1.62012       -1.20895
O          2.07764       -1.02452        0.96298
O          2.26728        0.53566       -0.94128
H          1.72579        1.59777        0.22408
C          3.66673       -1.66107       -1.03737
H          3.62910       -2.71646       -0.76572
H          3.75076       -1.54617       -2.11823
H          4.49511       -1.16314       -0.53285
N          1.18591        2.10238        0.97288
C          0.98760        3.52052        0.61252
C          1.83979        1.88200        2.27734
H          0.26593        1.59781        0.93843
H          1.96042        4.00151        0.49532
H          0.41467        3.57134       -0.31299
H          0.41580        4.01492        1.39918
H          2.80133        2.39900        2.28921
H          1.20105        2.27401        3.07117
H          1.99572        0.80883        2.39392
N         -1.60910       -1.95191        0.78420
C         -1.85086       -2.55261       -0.55372
H         -2.55054       -1.90882       -1.08867
H         -0.89511       -2.59608       -1.07630
H         -2.27390       -3.55145       -0.41889
C         -0.60432       -2.72036        1.55620
H          0.32889       -2.73353        0.99489
H         -0.43334       -2.21794        2.50850
H         -0.98612       -3.73044        1.72538
C         -2.87775       -1.76541        1.53028
H         -2.65562       -1.28948        2.48591
H         -3.52136       -1.11177        0.93974
H         -3.34359       -2.74025        1.69391
