38
2msa1ma1tma_115.log	Energy: -1003273.5033780
S         -1.58094       -0.29242       -0.16358
O         -1.04282        1.04935       -0.43855
O         -2.26545       -0.92996       -1.31126
O         -2.50493       -0.29034        1.04396
H         -3.87109       -0.14067        0.56868
C         -0.21922       -1.33491        0.31129
H          0.48700       -1.36691       -0.51979
H          0.26419       -0.90036        1.18711
H         -0.61119       -2.32845        0.52922
S          2.94773        0.66518        0.14425
O          2.57097        0.25774        1.49117
O          2.88454       -0.35196       -0.90996
O          4.40894        1.27766        0.15166
H          5.08292        0.53770       -0.14483
C          1.99084        2.07991       -0.32393
H          0.94237        1.76457       -0.35659
H          2.14229        2.85102        0.43164
H          2.33126        2.41398       -1.30368
N          5.89736       -0.72387       -0.59091
H          5.36229       -1.03827       -1.39700
C          5.82723       -1.72428        0.48498
H          6.27112       -2.68653        0.20766
H          6.33953       -1.33602        1.36767
H          4.77808       -1.88028        0.74414
H          6.85475       -0.56950       -0.89024
N         -4.89149       -0.00198        0.16912
C         -5.29975       -1.30019       -0.41286
H         -4.54256       -1.58676       -1.14412
H         -5.33366       -2.04615        0.38228
H         -6.28472       -1.20180       -0.87788
C         -5.75288        0.41268        1.29322
H         -5.73964       -0.36636        2.05631
H         -5.35635        1.33553        1.71834
H         -6.77568        0.57222        0.94076
C         -4.78335        1.04913       -0.87081
H         -4.38314        1.95428       -0.41248
H         -4.08465        0.69978       -1.63223
H         -5.77009        1.24168       -1.30090
