37
2msa1ma1eda_149.log	Energy: -1013361.0875133
S          2.43789        0.67021       -0.39266
O          1.88533       -0.26067       -1.39138
O          2.46937        0.16753        0.97890
O          1.75195        2.05349       -0.48762
C          4.08286        1.10069       -0.90326
H          4.02962        1.53579       -1.90074
H          4.48574        1.81285       -0.18376
H          4.66718        0.18027       -0.91019
S         -1.64955        1.49109        0.40474
O         -1.54082        0.19911        1.12190
O         -2.04555        1.35197       -1.00880
O         -0.42261        2.34257        0.58496
H          0.77901        2.12271       -0.02906
C         -2.92307        2.42150        1.23339
H         -2.63407        2.54417        2.27694
H         -3.01504        3.38822        0.73851
H         -3.85280        1.85745        1.15324
N         -2.70702       -1.42880       -1.78597
H         -2.56928       -0.41636       -1.83546
C         -3.74799       -1.71775       -0.79292
H         -4.71819       -1.26430       -1.03118
H         -3.88477       -2.79915       -0.70105
H         -3.41704       -1.32935        0.17440
H         -2.97926       -1.75651       -2.70648
H         -0.69054       -3.65389        0.43184
H          0.41804       -3.66548       -0.96421
H          1.59977       -4.08513        1.19375
H          2.19230       -2.62467        0.39447
H          1.34804       -2.69571        2.94704
H          1.28157       -1.33832        2.03311
H         -1.16412       -1.78454       -1.04529
H         -0.60794       -1.23450        0.42069
C          0.14807       -3.13998       -0.04393
C          1.33023       -3.06040        0.91899
N         -0.31360       -1.78411       -0.40862
N          0.95711       -2.29926        2.10304
H          0.44084       -1.24553       -0.86629
