42
2msa2eda_331.log	Energy: -1072753.4605689
S          0.41758        2.07842       -1.09225
O          1.72680        1.53824       -1.49389
O          0.26279        2.37837        0.33905
O         -0.69543        1.16392       -1.58695
C          0.17288        3.60578       -1.98049
H          0.94962        4.30180       -1.66261
H          0.25279        3.40053       -3.04797
H         -0.81477        3.99372       -1.73065
S         -2.68366       -0.66691        0.49453
O         -2.01085       -0.52162        1.77865
O         -2.16515       -1.68648       -0.41903
O         -2.79055        0.71228       -0.25118
H         -1.92563        0.94331       -0.76706
C         -4.41059       -0.96819        0.78421
H         -4.47990       -1.91128        1.32701
H         -4.80451       -0.14807        1.38392
H         -4.91747       -1.03480       -0.17769
H          1.64777       -1.81553       -2.93885
H          2.41606       -0.69107       -1.80338
H          3.52525       -2.92325       -1.69044
H          2.71317       -2.55623       -0.16662
H          1.74170       -4.42593       -2.19737
H          1.92972       -4.66297       -0.58927
H          0.01771       -0.59345       -1.62241
H         -0.03828       -2.21344       -1.19807
C          1.83776       -1.61347       -1.88009
C          2.53994       -2.79265       -1.22168
N          0.54622       -1.37582       -1.20625
N          1.68349       -3.97543       -1.29054
H          0.70666       -1.07607       -0.17650
H          2.91905       -0.98484        1.79922
H          2.78414        0.38689        0.66946
H          3.63869        1.07595        2.88987
H          2.12557        1.88632        2.45079
H          2.34935        0.87865        4.78322
H          0.99210        0.47968        3.98379
H          0.57438       -0.94614        2.08144
H          0.42356        0.46038        1.26222
C          2.37533       -0.05774        1.58362
C          2.56491        0.92003        2.73943
N          0.97243       -0.39994        1.32288
N          2.00187        0.37283        3.97652
