22
2msa1a_09.log	Energy: -869142.3187188
S          2.43913        0.21423       -0.14757
O          3.77009        0.66317       -0.49058
O          1.79930       -0.84771       -0.91731
O          1.49496        1.50358       -0.18318
H          0.54982        1.22980       -0.29273
C          2.39735       -0.24522        1.57180
H          3.05313       -1.10936        1.68567
H          2.76612        0.59690        2.15700
H          1.36903       -0.50166        1.83318
S         -1.50568       -0.58328        0.11900
O         -0.89913       -1.01702        1.36462
O         -1.08474        0.73397       -0.40659
O         -3.06905       -0.55719        0.23952
H         -3.44361        0.42308        0.14489
C         -1.23896       -1.81572       -1.12599
H         -0.15826       -1.87596       -1.26873
H         -1.64860       -2.75586       -0.75642
H         -1.74108       -1.49592       -2.03852
N         -3.85850        1.88753       -0.03789
H         -2.99583        2.31913       -0.36369
H         -4.13585        2.34458        0.82537
H         -4.58217        2.05266       -0.73035
