37
2msa1ma1eda_385.log	Energy: -1013356.3144755
S          0.49280        1.77188        0.55809
O         -0.02119        1.06556        1.73813
O          0.38259        0.95335       -0.70117
O          1.90254        2.24763        0.69778
H          2.88664        1.18391       -0.04023
C         -0.51512        3.21428        0.30172
H         -1.53565        2.86565        0.13189
H         -0.45042        3.83223        1.19758
H         -0.13372        3.74739       -0.56902
S         -2.89562       -0.32890       -0.41119
O         -3.91613       -1.16908       -1.00493
O         -3.04104        1.12088       -0.41763
O         -1.52210       -0.71011       -1.12664
H         -0.81576       -0.00071       -0.96281
C         -2.61322       -0.85373        1.26720
H         -3.52326       -0.63130        1.82622
H         -2.42369       -1.92777        1.25831
H         -1.76219       -0.29313        1.66202
N          3.48974        0.52821       -0.61439
H          4.46342        0.72615       -0.39414
C          3.20757        0.72905       -2.05458
H          3.79822        0.02946       -2.64753
H          2.14164        0.56039       -2.20272
H          3.44980        1.75492       -2.33270
H          3.28200       -0.48700       -0.34129
H          2.42014       -3.49361        1.51145
H          2.60019       -1.79497        1.98862
H          0.21399       -2.45338        1.82243
H          0.62006       -1.16060        0.70430
H          0.08232       -3.92893       -0.02667
H         -0.41313       -2.52684       -0.73601
H          3.91126       -2.67115       -0.03905
H          2.46606       -2.57022       -0.80698
C          2.26516       -2.45627        1.18296
C          0.77997       -2.22092        0.90973
N          3.02684       -2.17138       -0.04796
N          0.36108       -2.98374       -0.26344
