34
2msa1a1eda_189.log	Energy: -988701.8098829
S          0.45311        1.60060       -0.01165
O          1.19409        1.11809       -1.21684
O          0.44889        0.59779        1.07786
O         -0.91234        2.08870       -0.34391
H         -2.17020        1.19957       -0.62654
C          1.35606        3.02048        0.56650
H          2.36578        2.68931        0.81477
H          1.37072        3.76364       -0.23051
H          0.84818        3.40934        1.44911
S         -3.08905       -0.68180       -0.00545
O         -4.44004       -1.18544       -0.11117
O         -3.04582        0.70516       -0.74993
O         -2.00194       -1.54223       -0.49657
H         -0.38333       -1.59611       -1.10269
C         -2.71235       -0.27014        1.68347
H         -3.45827        0.44566        2.02868
H         -2.77543       -1.19815        2.25323
H         -1.70103        0.14358        1.72201
N          0.60611       -1.55127       -1.41069
H          1.24370       -1.83487       -0.59890
H          0.82343       -0.54837       -1.59286
H          0.74844       -2.12494       -2.23594
H          3.87079       -1.59696       -1.28725
H          5.32862       -1.32904       -0.32934
H          3.89313       -3.00266        0.70754
H          4.10502       -1.58257        1.75512
H          1.79171       -2.42797        1.56122
H          1.90552       -0.86607        1.12874
H          4.68210        0.80046       -0.73286
H          3.08048        0.51960       -0.61087
C          4.24611       -1.16524       -0.34290
C          3.64693       -1.94145        0.82405
N          3.98806        0.26642       -0.22376
N          2.18335       -1.81269        0.85426
