37
2msa1ma1eda_522.log	Energy: -1013350.5316870
S          1.14104        1.86020       -0.14033
O          0.30347        1.97072       -1.35027
O          2.45251        1.20018       -0.37539
O          0.40030        1.23008        0.99636
C          1.51541        3.52411        0.39086
H          0.57441        4.03902        0.58583
H          2.11997        3.47132        1.29649
H          2.06338        4.01710       -0.41247
S         -3.01014       -0.35463        0.17611
O         -3.03090       -1.13350       -1.05442
O         -2.20492       -0.80874        1.29371
O         -4.54709       -0.27503        0.70593
H         -5.10151       -0.75792        0.07653
C         -2.67324        1.34686       -0.17052
H         -1.66324        1.41256       -0.59035
H         -3.41743        1.69500       -0.88661
H         -2.72562        1.89561        0.76946
N          3.35265       -1.12235        1.27286
H          3.28935       -0.23817        0.76069
C          4.29056       -2.03952        0.61553
H          5.30280       -1.62793        0.51526
H          4.35108       -2.97203        1.18423
H          3.89876       -2.26722       -0.37882
H          3.66570       -0.89639        2.21181
H          0.72775       -3.26007       -0.20588
H         -0.88032       -2.48501       -0.15056
H          0.06321       -2.22174       -2.34308
H         -0.05815       -0.64026       -1.58556
H          2.12546       -1.44721       -2.76815
H          2.22596       -0.51770       -1.43664
H          0.18687       -1.87548        1.78776
H          1.68179       -1.49497        1.07739
C          0.19225       -2.30789       -0.24269
C          0.48813       -1.59395       -1.55407
N          0.61997       -1.51185        0.94136
N          1.92295       -1.43167       -1.77562
H          0.34073       -0.50392        0.88778
