30
2msa1eda_53.log	Energy: -953204.1570775
S          1.61857        1.48808       -0.08176
O          2.65587        1.54749       -1.10887
O          2.00547        0.82442        1.18039
O          0.34451        0.83492       -0.62288
C          1.12828        3.15647        0.31443
H          2.00692        3.67160        0.70348
H          0.77681        3.63439       -0.60015
H          0.34025        3.12137        1.06722
S         -2.83640       -0.26016       -0.07699
O         -2.17825       -1.34740        0.66129
O         -3.08813       -0.47978       -1.48941
O         -2.05633        1.08907        0.16531
H         -1.08396        1.03902       -0.16011
C         -4.35106        0.14142        0.75621
H         -5.00124       -0.72848        0.65877
H         -4.13043        0.34664        1.80301
H         -4.79172        1.00854        0.26511
H          1.36330       -3.61158       -0.27081
H          1.06553       -2.50091       -1.63715
H          3.53885       -2.74037       -0.96943
H          2.94738       -1.07953       -0.97668
H          4.03137       -2.40311        1.21201
H          3.25152       -0.94256        1.22878
H         -0.40756       -2.08327        0.36598
H          1.01640       -1.69259        1.17952
C          1.43214       -2.57588       -0.61163
C          2.86279       -2.04484       -0.46418
N          0.55886       -1.75467        0.26032
N          3.18135       -1.92028        0.95670
H          0.48224       -0.77409       -0.10422
