37
2msa1ma1eda_512.log	Energy: -1013350.7101947
S          1.59828       -1.83282        0.21805
O          0.75557       -1.91686        1.42898
O          2.77638       -0.94267        0.36535
O          0.79147       -1.49043       -0.99696
C          2.24499       -3.47142       -0.08028
H          2.84867       -3.75527        0.78219
H          1.40607       -4.15692       -0.20287
H          2.85356       -3.44258       -0.98439
S         -2.86817       -0.17189       -0.15674
O         -2.95743        0.73243        0.97545
O         -2.16788        0.25805       -1.35982
O         -4.38854       -0.52501       -0.60881
H         -4.45316       -0.38786       -1.56478
C         -2.28583       -1.74918        0.39271
H         -1.27433       -1.62375        0.79917
H         -2.97476       -2.10334        1.15988
H         -2.25735       -2.41762       -0.46736
N          3.28495        1.57931       -1.08678
H          3.34178        0.61831       -0.73555
C          3.93893        2.49255       -0.14708
H          5.01293        2.30585       -0.02196
H          3.80314        3.52693       -0.47643
H          3.46888        2.38650        0.83448
H          3.74501        1.60587       -1.99064
H         -0.34299        0.75135        1.09658
H          1.38062        1.08843        1.15894
H          0.00577        2.95869        2.12633
H          0.93761        3.50774        0.72520
H         -1.90529        2.76270        0.62580
H         -1.25628        4.25026        0.34905
H          0.48903        0.21373       -0.99169
H         -0.24526        1.73360       -1.19218
C          0.43700        1.41350        0.71787
C          0.10600        2.86380        1.03594
N          0.53151        1.23195       -0.75222
N         -1.08281        3.25483        0.28398
H          1.47579        1.57038       -1.07408
