41
2msa1dma1tma_13.log	Energy: -1027958.0239322
S         -1.91172       -0.96166       -0.64965
O         -2.03774       -0.80399        0.82345
O         -0.97254       -2.05350       -1.03068
O         -1.62756        0.33090       -1.31884
C         -3.50633       -1.49681       -1.25274
H         -3.43419       -1.62193       -2.33330
H         -3.75285       -2.44377       -0.77226
H         -4.24446       -0.73444       -1.00187
S          2.28244        0.70082       -0.52436
O          3.36055       -0.29376       -0.40142
O          2.67055        2.11753       -0.43119
O          1.15740        0.38787        0.44616
C          1.54921        0.46561       -2.13904
H          1.16498       -0.55350       -2.20418
H          0.71989        1.16338       -2.25468
H          2.32336        0.64592       -2.88589
N          0.95635       -2.23491        0.89742
C          0.33733       -2.50948        2.20808
C          2.18257       -3.00715        0.61700
H          0.24447       -2.37242        0.14635
H          1.02414       -2.20054        2.99827
H         -0.59495       -1.94541        2.26037
H          0.13094       -3.57807        2.29757
H          2.91485       -2.81161        1.40127
H          1.94049       -4.07136        0.58162
H          2.59993       -2.66593       -0.32920
H          1.14820       -1.19681        0.81220
N         -1.03339        2.17649        0.76717
C         -0.53968        2.01193        2.15698
H         -1.02625        1.13404        2.58272
H          0.53582        1.85154        2.11423
H         -0.79124        2.90980        2.72630
C         -0.32606        3.27154        0.05347
H          0.74756        3.06688        0.05711
H         -0.69202        3.29704       -0.97370
H         -0.54699        4.21678        0.55459
C         -2.50551        2.35486        0.73089
H         -2.81975        2.41099       -0.31010
H         -2.96393        1.48393        1.19845
H         -2.76041        3.27266        1.26558
H         -0.81409        1.30185        0.25315
