38
2msa1ma1tma_78.log	Energy: -1003278.1546288
S          0.66694        1.42536        0.63432
O          0.86877        0.16665        1.38582
O         -0.31217        2.34403        1.19920
O          0.33656        1.09785       -0.85859
H         -0.49607        0.46187       -0.92714
C          2.24273        2.20248        0.44156
H          2.58747        2.46819        1.44165
H          2.90212        1.46618       -0.03606
H          2.10466        3.09438       -0.16952
S         -3.03808       -0.17630       -0.68486
O         -3.91157       -0.74957       -1.69665
O         -1.57015       -0.47470       -0.92207
O         -3.37069       -0.55635        0.72490
H         -2.13038       -1.14046        1.48921
C         -3.17924        1.60091       -0.75535
H         -2.91878        1.91997       -1.76529
H         -4.21643        1.85360       -0.53361
H         -2.50429        2.04127       -0.01875
N         -1.23680       -1.56199        1.90041
H         -0.48264       -0.85490        1.78580
C         -0.88211       -2.79703        1.16255
H          0.05356       -3.20226        1.54882
H         -1.68556       -3.52528        1.27194
H         -0.77772       -2.52610        0.11217
H         -1.37664       -1.73436        2.89317
N          3.68646       -0.53619       -0.64694
C          4.14775       -0.97256        0.66007
H          4.91735       -0.28671        1.02911
H          3.30990       -0.95960        1.36329
H          4.57908       -1.99154        0.63843
C          2.62097       -1.39550       -1.14042
H          1.80521       -1.41318       -0.41388
H          2.22636       -0.99816       -2.07913
H          2.96860       -2.43202       -1.31341
C          4.78067       -0.45348       -1.59861
H          4.40778       -0.08167       -2.55739
H          5.54088        0.24395       -1.23304
H          5.26552       -1.43309       -1.77174
