34
2msa1a1eda_335.log	Energy: -988690.2219040
S         -2.84530       -0.39763       -0.17135
O         -4.28426       -0.55908       -0.17114
O         -2.20984        0.29949        0.95490
O         -2.43690        0.35893       -1.50025
H         -1.56814        0.89957       -1.37967
C         -2.06607       -1.98312       -0.35881
H         -2.21823       -2.53619        0.56955
H         -2.53775       -2.48532       -1.20338
H         -0.99883       -1.82897       -0.53072
S          2.43852       -0.65448       -0.34120
O          1.21682       -1.44176       -0.55394
O          2.80864       -0.47326        1.08722
O          2.37595        0.69498       -1.02644
H          2.12233        1.77496        0.18879
C          3.78087       -1.51963       -1.12800
H          3.86925       -2.49568       -0.65031
H          3.53926       -1.62961       -2.18516
H          4.69379       -0.93974       -0.99433
N         -0.30185       -1.77424        2.38490
H          0.21796       -1.63313        3.24302
H         -0.97432       -1.02063        2.27425
H          0.35268       -1.73899        1.60774
H          0.06774        3.66109       -0.07334
H         -1.44074        2.80104        0.26782
H         -0.11661        2.24077        2.11126
H          0.03681        0.82845        1.06480
H          2.05811        2.96394        1.43344
H          2.18390        1.30140        1.72245
H         -0.45825        2.55549       -2.04781
H          0.57267        1.44969       -1.39932
C         -0.38883        2.66244        0.00541
C          0.25753        1.89360        1.14745
N         -0.32559        1.92297       -1.26435
N          1.74779        2.03864        1.14554
