37
2msa1ma1eda_122.log	Energy: -1013361.3473712
S         -1.81345       -1.60254       -0.36960
O         -1.52306       -2.06890        0.99593
O         -0.56538       -1.25370       -1.13522
O         -2.79435       -0.48945       -0.44437
C         -2.54850       -2.96453       -1.25340
H         -1.84692       -3.79862       -1.23186
H         -3.47764       -3.22803       -0.74793
H         -2.74042       -2.64508       -2.27757
S          2.61298       -0.21395       -0.32282
O          2.41053        0.42458        0.97946
O          2.37315        0.60439       -1.50456
O          1.81313       -1.56252       -0.39721
H          0.82065       -1.44350       -0.67057
C          4.26679       -0.86270       -0.37330
H          4.94373       -0.01354       -0.27543
H          4.39219       -1.55550        0.45835
H          4.40947       -1.36444       -1.32973
N         -0.21449        0.22783        2.45489
H         -0.59265       -0.68736        2.19884
C         -0.36800        0.47702        3.88874
H          0.13157       -0.27196        4.51529
H          0.04466        1.45894        4.13691
H         -1.43079        0.48146        4.14630
H          0.76872        0.22186        2.18339
H          0.46497        2.37326       -0.04443
H         -0.20036        1.05890       -1.02400
H         -0.25710        3.20791       -2.28060
H         -1.88554        2.57910       -2.00046
H         -0.64893        4.79382       -0.53480
H         -2.08129        4.76966       -1.31980
H         -0.97656        1.22050        1.38061
H         -1.88604        2.60185        0.79595
C         -0.44211        1.99813       -0.52566
C         -1.00966        3.01247       -1.50656
N         -1.44353        1.71791        0.53179
N         -1.44147        4.20598       -0.77290
H         -2.15112        1.04515        0.17255
