34
2msa1a1eda_255.log	Energy: -988696.0663201
S         -2.12780       -1.07857       -0.03744
O         -2.46141       -0.32381        1.18058
O         -0.77784       -1.71558        0.01244
O         -2.29467       -0.26608       -1.28684
H         -1.24141        0.88418       -1.50710
C         -3.28421       -2.42272       -0.18487
H         -3.17906       -3.05039        0.70004
H         -4.28622       -1.99758       -0.24222
H         -3.04421       -2.98237       -1.08861
S          2.63434       -0.76253       -0.23445
O          3.43393       -1.44135       -1.23532
O          2.44072       -1.38186        1.06965
O          1.20772       -0.39845       -0.85005
H          0.45221       -0.98538       -0.47551
C          3.28564        0.87816       -0.00716
H          4.26182        0.76413        0.46579
H          3.39296        1.34757       -0.98536
H          2.59791        1.43941        0.62537
N          0.25167        0.25605        2.63310
H         -0.68224       -0.07141        2.38626
H          0.31262        0.27799        3.64556
H          0.90814       -0.45017        2.30303
H         -0.75894        3.82168       -1.37349
H         -2.30872        2.93702       -1.31482
H         -1.56457        3.69384        0.98023
H         -1.68685        1.93569        0.86082
H          0.73363        3.47169        1.14596
H          0.39006        1.89723        1.58771
H         -0.35293        1.85122       -2.57643
H          0.25483        1.54610       -1.05006
C         -1.26299        2.92598       -1.00109
C         -1.11618        2.80634        0.51808
N         -0.60293        1.73585       -1.59761
N          0.29055        2.61061        0.84873
