26
2msa2a_51.log	Energy: -904642.0984299
S         -2.38151        0.16927       -0.05787
O         -3.72005        0.66880       -0.28645
O         -1.57684        0.74913        1.02307
O         -1.57774        0.30460       -1.41204
H         -0.59405        0.13417       -1.22459
C         -2.43433       -1.59506        0.18751
H         -2.91809       -1.77825        1.14761
H         -3.01686       -2.02677       -0.62625
H         -1.41455       -1.98852        0.17597
S          1.58574       -1.04972       -0.01073
O          1.12839       -2.39854       -0.32648
O          0.87343        0.02998       -0.78709
O          3.05355       -0.79611       -0.12911
H          3.14810        0.81467       -0.50462
C          1.20369       -0.74779        1.71084
H          0.12160       -0.73053        1.84154
H          1.66542       -1.54577        2.29296
H          1.62516        0.21800        1.99306
N          2.91900        1.80308       -0.81655
H          3.74570        2.39128       -0.86718
H          2.16968        2.20809       -0.16209
H          2.48992        1.70251       -1.73492
N          0.82189        2.74028        0.78719
H          0.97591        2.93972        1.77188
H          0.13354        1.98174        0.74937
H          0.35259        3.55748        0.40501
