38
2msa2dma_214.log	Energy: -1003270.7624857
S          2.77427        1.26062       -0.09583
O          2.47297        0.52191       -1.32529
O          4.09981        1.85678        0.01575
O          2.49915        0.31321        1.13947
H          2.96785       -0.62792        0.97818
C          1.54082        2.50497        0.17438
H          1.66312        3.23750       -0.62466
H          0.54512        2.05541        0.13855
H          1.73420        2.96370        1.14408
S         -1.90742        0.01173       -0.15076
O         -1.53622        1.41266        0.09117
O         -2.71581       -0.22069       -1.36758
O         -2.61030       -0.60318        1.05166
H         -4.02413       -0.45821        0.88073
C         -0.39839       -0.92033       -0.30062
H          0.17429       -0.51293       -1.13555
H          0.16701       -0.79685        0.62403
H         -0.65441       -1.96614       -0.47249
N         -5.10779       -0.30551        0.65871
C         -5.51581       -1.32484       -0.33467
C         -5.27247        1.08722        0.17773
H         -5.62126       -0.43401        1.52860
H         -4.84474       -1.22516       -1.18964
H         -5.39389       -2.31373        0.10838
H         -6.55568       -1.16805       -0.62948
H         -4.68377        1.19331       -0.73455
H         -6.32740        1.29281       -0.01588
H         -4.88079        1.76849        0.93342
N          3.62515       -1.94868        0.64297
C          4.89769       -1.64868       -0.02791
C          2.70363       -2.70520       -0.21160
H          3.80875       -2.47069        1.49520
H          4.68843       -1.05207       -0.91897
H          5.52816       -1.05446        0.63617
H          5.43000       -2.56142       -0.32514
H          2.41614       -2.06759       -1.05191
H          3.15734       -3.62763       -0.59715
H          1.80500       -2.95709        0.35640
