32
2msa1a1dma_07.log	Energy: -953978.6318997
S         -2.20381       -0.50554       -0.25333
O         -2.01608       -0.22328        1.18986
O         -1.48351       -1.74077       -0.67827
O         -1.89572        0.66923       -1.11552
H         -0.84544        1.78693       -0.38033
C         -3.93647       -0.83987       -0.51280
H         -4.50179        0.04171       -0.20988
H         -4.08624       -1.04783       -1.57226
H         -4.21405       -1.70279        0.09284
S          2.44406       -0.46716       -0.10877
O          3.67462        0.30279       -0.25528
O          1.40526        0.20345        0.75832
O          2.60930       -1.87549        0.35984
H          1.18467       -2.29929        1.07977
C          1.68180       -0.59506       -1.72372
H          2.34697       -1.17959       -2.36021
H          0.70836       -1.07961       -1.61953
H          1.56072        0.40843       -2.13506
N          0.18419       -2.27221        1.42483
H         -0.03168       -3.01644        2.07995
H         -0.46544       -2.27824        0.60394
H          0.04821       -1.35161        1.85086
N         -0.11954        2.27350        0.19506
C         -0.74188        2.76483        1.44086
C          0.58022        3.30416       -0.59239
H          0.55876        1.49379        0.43161
H         -1.45104        3.56041        1.20368
H         -1.26438        1.92547        1.90121
H          0.03572        3.14379        2.10626
H         -0.12323        4.08616       -0.88364
H          1.38711        3.72969        0.00618
H          1.00314        2.84142       -1.48428
