40
2msa1dma1eda_53.log	Energy: -1038035.6848021
S         -3.14048       -0.09088        0.01914
O         -3.22269       -1.25855        0.90941
O         -2.01760       -0.27959       -0.99194
O         -3.02909        1.22587        0.66627
C         -4.63232       -0.07054       -0.96213
H         -4.71959       -1.02612       -1.47910
H         -5.47132        0.07397       -0.28069
H         -4.57026        0.75255       -1.67407
S          2.96589       -0.51370       -0.00465
O          2.90507       -1.76564        0.76627
O          3.01018        0.73336        0.77559
O          1.83318       -0.46956       -1.01819
C          4.45434       -0.56890       -0.98960
H          5.30183       -0.60164       -0.30423
H          4.42705       -1.46488       -1.60979
H          4.49488        0.32932       -1.60606
N         -0.18883       -2.09084       -0.02371
C         -0.19130       -1.93469        1.45022
C         -0.20530       -3.49639       -0.47059
H         -1.00088       -1.56501       -0.41727
H          0.72315       -2.37313        1.84863
H         -0.21311       -0.86953        1.68049
H         -1.09462       -2.39327        1.85069
H          0.68498       -3.99672       -0.08739
H         -1.10631       -3.97936       -0.09004
H         -0.20338       -3.52147       -1.56058
H          0.65021       -1.60675       -0.41253
H         -0.93937        2.31999        0.98569
H          0.50163        1.32624        1.32403
H          0.98763        3.76002        1.67731
H          2.00851        3.00072        0.45070
H         -0.27341        4.77418       -0.08566
H          1.26463        4.90302       -0.62938
H         -0.84184        0.97387       -0.85937
H          0.00611        2.36964       -1.34089
C          0.08356        2.09588        0.67427
C          0.98675        3.32282        0.67111
N          0.01231        1.55889       -0.71082
N          0.53951        4.24194       -0.37890
H          0.82913        0.94156       -0.91714
