34
2msa1a1eda_53.log	Energy: -988712.0448134
S         -1.74453       -1.42026        0.16610
O         -3.15429       -1.05634        0.34434
O         -1.06139       -0.58663       -0.89657
O         -1.46971       -2.85694       -0.10670
H          0.07293       -2.87942       -0.93479
C         -0.89855       -1.03582        1.69092
H         -1.06319        0.01837        1.91939
H         -1.32395       -1.67134        2.46856
H          0.16801       -1.22795        1.56472
S          2.52693        0.30645        0.20825
O          2.43912       -1.18260        0.32806
O          1.73350        1.01758        1.23296
O          2.22870        0.76934       -1.17435
H          0.63641        1.98797       -1.02879
C          4.23909        0.69219        0.52922
H          4.47615        0.35668        1.53894
H          4.85349        0.17126       -0.20520
H          4.36677        1.77134        0.44229
N          0.87926       -2.44481       -1.44453
H          0.45679       -1.65912       -1.94625
H          1.34386       -3.09308       -2.07194
H          1.55437       -2.01434       -0.75040
H         -1.09557        3.84061       -0.45959
H         -1.27335        3.00589       -2.01613
H         -3.44262        3.08004       -0.75544
H         -2.89297        1.43586       -1.08889
H         -3.07481        2.66893        1.50261
H         -3.15095        1.08095        1.04449
H         -0.03542        1.95097        0.46157
H         -0.59156        0.92005       -0.69341
C         -1.31418        2.87914       -0.93163
C         -2.67787        2.33428       -0.50265
N         -0.26289        1.91450       -0.53670
N         -2.66224        1.96218        0.90718
