37
2msa1ma1eda_138.log	Energy: -1013359.9598850
S         -1.17030       -2.13650        0.01876
O         -2.45353       -2.11697       -0.69151
O         -1.10367       -1.24953        1.20845
O         -0.02009       -1.85338       -0.91801
C         -0.91068       -3.79496        0.61833
H         -1.71750       -4.03158        1.31220
H         -0.92710       -4.47027       -0.23733
H          0.05462       -3.83050        1.12423
S          2.69606        0.04582       -0.05157
O          2.52180        0.47425        1.33145
O          2.03113        0.87737       -1.06704
O          2.30584       -1.44916       -0.24145
H          1.28231       -1.60872       -0.50269
C          4.43130       -0.02891       -0.42148
H          4.83235        0.97640       -0.29022
H          4.89647       -0.72255        0.27870
H          4.55205       -0.36727       -1.44990
N         -3.06898        0.83796       -0.92047
H         -3.45390        1.41064       -1.66312
C         -3.91394        0.87279        0.27534
H         -4.95129        0.56472        0.09521
H         -3.48417        0.19729        1.02003
H         -3.92171        1.88679        0.68880
H         -2.99397       -0.12479       -1.25032
H         -1.04682        2.48063        1.77942
H          0.69235        2.20381        1.54666
H          0.18866        4.49881        0.89799
H          0.62601        3.56992       -0.53795
H         -2.10199        4.34841        0.20096
H         -1.29865        4.65763       -1.18925
H         -0.62792        0.37874        0.69937
H         -1.47853        1.33030       -0.36040
C         -0.24916        2.41355        1.03341
C         -0.14970        3.69753        0.22462
N         -0.55040        1.26318        0.15785
N         -1.41545        3.97768       -0.44762
H          0.21161        1.13000       -0.52221
