43
2msa1eda1tma_07.log	Energy: -1062691.9870022
S          2.98991       -0.70031       -0.29809
O          2.39591       -2.06173       -0.27464
O          3.35550       -0.16848        1.02781
O          2.11297        0.25405       -1.05718
C          4.49294       -0.84038       -1.24815
H          5.15315       -1.53470       -0.72794
H          4.24001       -1.21787       -2.23885
H          4.95055        0.14678       -1.31515
S         -2.86365        0.74344       -0.31957
O         -3.41588       -0.57370        0.07328
O         -1.58067        0.60079       -1.09130
O         -2.72541        1.71254        0.78264
C         -4.03002        1.43732       -1.48337
H         -4.98133        1.57083       -0.96759
H         -3.64378        2.39631       -1.83002
H         -4.13846        0.74251       -2.31639
H         -2.16330       -2.31260       -1.01190
H         -0.81254       -3.44932       -1.28689
H         -2.54833       -4.15190        0.48620
H         -0.86801       -4.16500        1.04948
H         -2.71916       -1.92124        1.52194
H         -2.06719       -2.94160        2.66631
H         -0.59323       -0.80688       -0.71819
H         -0.51380       -1.50309        0.78725
C         -1.28416       -2.77984       -0.56645
C         -1.68470       -3.51404        0.71841
N         -0.34256       -1.68496       -0.21697
N         -1.92704       -2.51996        1.75770
H          0.66419       -1.91782       -0.34015
N          1.16605        2.21816        0.50455
C          0.48573        1.56348        1.65339
H         -0.46686        1.15862        1.31197
H          1.15061        0.78777        2.03710
H          0.28862        2.31518        2.42081
C          2.41594        2.89039        0.93371
H          3.06227        2.14225        1.39453
H          2.90792        3.30770        0.05418
H          2.16819        3.68823        1.63750
C          0.25537        3.12851       -0.23369
H          0.81139        3.58399       -1.05433
H         -0.57492        2.53562       -0.61828
H         -0.11096        3.89626        0.45097
H          1.46369        1.44676       -0.15498
