34
2msa1a1eda_58.log	Energy: -988707.8309806
S          1.31644        1.69061       -0.07459
O          2.26489        1.17466        0.92987
O         -0.06506        1.83577        0.49789
O          1.30479        0.91301       -1.33954
C          1.83316        3.34229       -0.49611
H          2.83644        3.28288       -0.91829
H          1.12934        3.74280       -1.22577
H          1.83067        3.93897        0.41608
S         -2.75153       -0.28434       -0.01933
O         -2.61805       -0.37067        1.43065
O         -2.21656       -1.40542       -0.80102
O         -2.18719        1.07090       -0.55839
H         -1.28113        1.36363       -0.12796
C         -4.46343       -0.09200       -0.44789
H         -4.85888        0.76358        0.09837
H         -4.53467        0.05953       -1.52455
H         -4.96901       -1.01147       -0.15188
N          0.35510       -0.97749        2.12643
H         -0.61555       -0.71076        2.28202
H          0.93265       -0.14253        2.20956
H          0.64168       -1.63630        2.84192
H          1.47324       -3.56042       -0.23874
H          1.45419       -2.99702       -1.93052
H          3.72784       -2.93897       -0.99702
H          3.17668       -1.31860       -1.43685
H          4.26229       -1.79581        0.87962
H          2.98651       -0.78151        0.82015
H         -0.34908       -1.92044       -0.78891
H          0.58322       -1.48297        0.53003
C          1.62247       -2.69773       -0.89224
C          3.03184       -2.14107       -0.71975
N          0.61397       -1.67543       -0.53119
N          3.27404       -1.74787        0.66350
H          0.82643       -0.76425       -0.98556
