35
2msa1ma1dma_17.log	Energy: -978639.2504048
S         -2.44370       -0.34869       -0.48716
O         -3.73514       -1.02280       -0.40574
O         -1.50626       -0.69687        0.64684
O         -2.49924        1.13748       -0.60786
H         -1.12833        1.70468        0.12137
C         -1.61734       -0.91661       -1.96730
H         -1.52276       -2.00300       -1.91829
H         -2.23946       -0.63753       -2.81858
H         -0.63695       -0.43835       -2.02743
S          2.18401       -0.06220       -0.55045
O          1.87524        0.33128        0.85991
O          1.38371        0.70235       -1.52299
O          2.11314       -1.54184       -0.73078
H          1.00716       -2.30543        0.23485
C          3.89590        0.35548       -0.83011
H          4.50924       -0.20755       -0.12668
H          4.14116        0.08586       -1.85755
H          4.01666        1.42800       -0.67628
N          0.27607       -2.57603        0.94245
H         -0.53146       -1.89538        0.78586
C          0.81811       -2.40675        2.30906
H          0.01931       -2.54462        3.03810
H          1.61555       -3.13023        2.48205
H          1.22069       -1.39513        2.37119
H         -0.04449       -3.52531        0.76961
N         -0.34378        2.05143        0.73322
C         -0.88503        2.20954        2.09670
C          0.23681        3.27545        0.14995
H          0.38662        1.31159        0.74618
H         -1.66274        2.97455        2.08696
H         -1.31629        1.25410        2.39518
H         -0.08159        2.49801        2.77710
H         -0.54218        4.03392        0.05651
H          1.03717        3.63913        0.79727
H          0.63941        3.01969       -0.83017
