29
2msa1a1ma_40.log	Energy: -929309.2219241
S         -1.73695       -1.02492        0.07540
O         -2.82269       -0.05045       -0.13206
O         -1.02356       -0.92049        1.35682
O         -0.76699       -0.98405       -1.09669
H          0.75481       -1.16775       -0.84937
C         -2.46744       -2.64895       -0.00450
H         -3.19131       -2.72702        0.80708
H         -2.95857       -2.75688       -0.97139
H         -1.67508       -3.38835        0.11337
S          2.47825       -0.10796       -0.00452
O          3.89494       -0.20097       -0.28078
O          1.76546       -1.27309       -0.79532
O          1.79120        1.16119       -0.29436
H          0.53914        1.65298       -1.49867
C          2.16182       -0.50158        1.69796
H          2.64725       -1.45382        1.91203
H          2.59772        0.29760        2.29860
H          1.07970       -0.56853        1.83630
N         -0.42725        1.64998       -1.86349
H         -1.05450        2.20481       -1.16994
H         -0.72454        0.65461       -1.82103
H         -0.47349        2.01629       -2.80874
N         -1.93320        2.72855        0.13128
H         -2.45727        3.59670        0.09622
C         -1.04728        2.69607        1.30556
H         -1.57969        2.85862        2.24916
H         -0.56510        1.71696        1.35287
H         -0.26923        3.45655        1.20079
H         -2.59691        1.95321        0.18899
