34
2msa1a1eda_181.log	Energy: -988702.0288398
S         -2.60083       -0.99467        0.26452
O         -3.95024       -1.51790        0.22882
O         -2.31007        0.08233        1.23066
O         -2.17635       -0.47012       -1.16555
H         -2.01028        0.54380       -1.16664
C         -1.44711       -2.31749        0.50859
H         -1.61283       -3.04921       -0.28261
H         -0.42416       -1.92691        0.47928
H         -1.67242       -2.75506        1.48223
S          2.44960       -0.67776       -0.41008
O          1.65301       -1.42080        0.59745
O          3.61404        0.02747        0.16260
O          1.56495        0.23015       -1.21595
H          0.59227        0.87441       -0.02872
C          3.08880       -1.87369       -1.57049
H          3.72244       -2.56838       -1.01863
H          2.24680       -2.39458       -2.02664
H          3.66832       -1.34058       -2.32431
N          2.19242        1.05720        2.59891
H          2.00008        0.15707        3.03062
H          2.56237        1.67417        3.31409
H          2.92700        0.87246        1.90825
H         -0.80246        3.29095        0.96484
H          0.85169        3.32899        0.33543
H         -0.65793        3.89803       -1.45953
H          0.12223        2.34036       -1.80143
H         -2.59713        2.56706       -0.68954
H         -2.24277        2.29634       -2.25759
H          0.80353        1.37462        1.55590
H         -0.75549        0.93998        1.00326
C         -0.10270        2.80013        0.28134
C         -0.60225        2.84521       -1.15575
N          0.12257        1.41769        0.74325
N         -1.89853        2.16243       -1.31013
