35
2msa1ma1dma_194.log	Energy: -978620.1622257
S         -0.50741       -2.15016       -0.03013
O         -1.09530       -1.91199        1.27514
O          0.95882       -2.00806       -0.14250
O         -1.20739       -1.33655       -1.16109
H         -0.93698       -0.32488       -1.23787
C         -0.91736       -3.79397       -0.56688
H         -2.00340       -3.88115       -0.59109
H         -0.48683       -3.95633       -1.55422
H         -0.49299       -4.48250        0.16433
S          0.10541        1.83720       -0.44666
O         -0.64462        1.06304       -1.49071
O          1.49704        2.15085       -0.88206
O          0.08780        1.14722        0.86094
H          1.98767       -0.66464        0.22160
C         -0.76679        3.37450       -0.28189
H         -0.84253        3.83255       -1.26808
H         -1.74929        3.13607        0.13796
H         -0.19661        4.00798        0.39815
N         -2.98602        1.39467        1.29705
H         -2.06230        0.98833        1.43262
C         -3.71327        0.65651        0.26582
H         -3.82121       -0.41923        0.46636
H         -4.71170        1.08875        0.14496
H         -3.18915        0.76680       -0.68733
H         -3.46958        1.32771        2.18603
N          2.75509        0.03228        0.31482
C          3.93952       -0.45926       -0.41468
C          2.97765        0.30369        1.75095
H          2.38525        0.89951       -0.14867
H          4.27989       -1.39401        0.03328
H          3.66223       -0.62984       -1.45477
H          4.73116        0.28970       -0.36266
H          3.28485       -0.61842        2.24687
H          3.75454        1.06293        1.85536
H          2.03639        0.66457        2.16482
