40
2msa1dma1eda_99.log	Energy: -1038029.1915977
S          1.56832        1.25396       -1.10193
O          1.31150       -0.06760       -1.75649
O          2.81977        1.89436       -1.48724
O          1.41682        1.10717        0.39511
H          1.10257       -1.09183        1.02821
C          0.21719        2.30199       -1.61854
H          0.27884        2.40609       -2.70238
H         -0.72950        1.83368       -1.33397
H          0.34525        3.27731       -1.14613
S         -2.63063       -0.85855       -0.44036
O         -3.99774       -1.36088       -0.38525
O         -1.68285       -1.54432        0.49790
O         -2.51780        0.63316       -0.26493
H         -1.65124        1.09675        0.96542
C         -1.99765       -1.16107       -2.08471
H         -2.03652       -2.23581       -2.26824
H         -2.64500       -0.63860       -2.78987
H         -0.97395       -0.78457       -2.15168
N         -0.95541        1.42946        1.70037
C         -1.05315        0.56092        2.89072
C         -1.16724        2.86354        1.96936
H         -0.02324        1.30475        1.24093
H         -2.00977        0.73837        3.38513
H         -1.02248       -0.47598        2.55409
H         -0.23185        0.78017        3.57554
H         -2.16502        3.00993        2.38573
H         -0.41241        3.22206        2.67149
H         -1.08342        3.41033        1.03005
H          3.61627       -1.59576       -0.42633
H          4.15197       -2.79175        0.75727
H          2.01281       -3.45286       -0.45821
H          1.83973       -3.38498        1.31641
H          1.07674       -1.22499       -0.60105
H         -0.01732       -2.09214        0.33541
H          4.10806       -1.06302        2.19599
H          3.13069       -0.13068        1.25659
C          3.37214       -2.05749        0.53869
C          2.03798       -2.79906        0.41616
N          3.28102       -1.07104        1.61485
N          0.97192       -1.78574        0.28384
