37
2msa1ma1eda_238.log	Energy: -1013360.9876577
S         -2.62184        0.26271       -0.16424
O         -2.01245        0.35284       -1.51135
O         -2.80377        1.54993        0.51828
O         -1.87026       -0.70483        0.72296
C         -4.23155       -0.47003       -0.38697
H         -4.82207        0.20085       -1.01125
H         -4.10358       -1.43673       -0.87435
H         -4.68955       -0.58674        0.59525
S          1.17379       -2.03391        0.05867
O          1.59412       -1.13705        1.13929
O          1.37204       -1.51053       -1.29699
O         -0.28950       -2.51414        0.26273
H         -0.98890       -1.71605        0.39026
C          2.03344       -3.57913        0.19965
H          3.09189       -3.36920        0.04389
H          1.85737       -3.98050        1.19709
H          1.65587       -4.25276       -0.56911
N          0.07977        1.50951        1.58787
H         -0.90600        1.76620        1.63409
C          0.89666        2.31391        2.49439
H          0.63122        2.18770        3.55126
H          1.95012        2.04104        2.37552
H          0.79012        3.37306        2.24295
H          0.13029        0.52498        1.84080
H          1.81699        2.03228       -2.64335
H          0.81885        3.23204       -1.78428
H          3.25599        3.33690       -1.17873
H          2.18468        3.08999        0.20313
H          4.23999        1.59448       -0.02914
H          2.84922        0.76404        0.19711
H         -0.34828        1.16153       -1.56250
H          1.03598        0.33036       -1.26135
C          1.43765        2.33945       -1.66637
C          2.58853        2.61253       -0.70278
N          0.58832        1.25183       -1.13341
N          3.33720        1.39073       -0.43968
H          0.41157        1.39112       -0.07841
