40
2msa1dma1eda_330.log	Energy: -1038019.2192235
S          3.49964       -0.24910       -0.23517
O          3.33990       -1.29406       -1.25153
O          2.68612       -0.45255        0.99269
O          3.29290        1.14627       -0.76741
H          1.83801        1.59697       -0.34266
C          5.21184       -0.27922        0.28174
H          5.41834       -1.26587        0.69761
H          5.83424       -0.09437       -0.59415
H          5.36248        0.49508        1.03428
S         -1.16999       -1.24637        0.29031
O         -1.38755       -0.58079        1.58953
O         -0.81445       -0.26305       -0.78634
O         -2.36628       -2.04297       -0.16177
H         -3.18196       -1.08345       -1.06710
C          0.17460       -2.38687        0.45250
H          1.06356       -1.82262        0.75331
H         -0.10978       -3.12310        1.20470
H          0.33771       -2.85448       -0.51834
N          0.83214        1.81600       -0.05870
C          0.32172        2.94601       -0.85077
C          0.76991        2.01169        1.40371
H          0.28008        0.96668       -0.30771
H          0.88652        3.84737       -0.60536
H          0.44978        2.71685       -1.90915
H         -0.73738        3.09904       -0.63011
H          1.34020        2.90491        1.66712
H         -0.27121        2.11888        1.71268
H          1.21353        1.13274        1.87067
H         -5.33193        1.01672       -1.29413
H         -5.58201       -0.69613       -0.86154
H         -5.42807        0.82401        1.16380
H         -4.20126       -0.44798        1.14979
H         -3.72834        2.33410        1.08374
H         -2.64845        1.08013        1.19782
H         -3.75630       -0.33518       -2.51119
H         -2.94230        0.53034       -1.33268
C         -4.89176        0.14782       -0.79783
C         -4.52560        0.47210        0.65379
N         -3.63944       -0.20946       -1.50911
N         -3.44257        1.45272        0.67868
