34
2msa1a1eda_304.log	Energy: -988691.8283659
S          2.50376        0.74167       -0.11167
O          1.73746        1.94400        0.21592
O          1.74539       -0.25499       -0.94318
O          3.09816        0.04170        1.07144
H          2.32533       -1.29779        1.36647
C          3.88991        1.23612       -1.11620
H          3.49976        1.73551       -2.00319
H          4.50193        1.91872       -0.52632
H          4.45461        0.34485       -1.38903
S         -1.10464       -1.72342       -0.22670
O         -0.95306       -1.26536        1.16717
O         -0.33823       -2.93271       -0.54328
O         -0.75019       -0.56883       -1.22227
H          0.24540       -0.33533       -1.14724
C         -2.81882       -1.92122       -0.58621
H         -3.20471       -2.65495        0.12231
H         -3.28581       -0.93108       -0.46126
H         -2.90823       -2.28255       -1.61087
N          1.68485       -2.14759        1.49459
H          0.73547       -1.80592        1.72831
H          2.03355       -2.78518        2.20406
H          1.57202       -2.63042        0.59737
H         -3.84466        3.03290        0.61372
H         -3.93392        1.53219        1.54978
H         -1.78904        2.63177        1.93589
H         -1.53537        1.09718        1.10032
H         -1.35139        3.74325       -0.11545
H         -0.25833        2.52293       -0.12499
H         -4.57778        1.40732       -0.90139
H         -2.96782        1.52083       -1.19630
C         -3.43541        2.01204        0.69925
C         -1.93790        2.10676        0.97952
N         -3.66061        1.21808       -0.51135
N         -1.25281        2.73394       -0.14793
