37
2msa1ma1eda_466.log	Energy: -1013351.0704165
S         -2.29556       -1.15365       -0.05265
O         -1.09536       -1.49703        0.72838
O         -2.00592       -0.62780       -1.40850
O         -3.21750       -0.21561        0.68536
H         -3.12405        1.17969        0.04360
C         -3.22813       -2.65922       -0.25990
H         -2.60715       -3.36020       -0.81815
H         -3.46007       -3.05485        0.72896
H         -4.14042       -2.42901       -0.81012
S          2.90874       -0.22032       -0.73097
O          3.99804       -0.32813       -1.68158
O          2.36822        1.11306       -0.42773
O          3.33921       -0.89676        0.62229
H          2.87162       -0.41700        1.44160
C          1.56430       -1.25035       -1.27500
H          1.19838       -0.84693       -2.22020
H          1.95799       -2.25652       -1.42131
H          0.77064       -1.24776       -0.52398
N          2.15274        0.40033        2.50506
H          2.77718        0.70625        3.24497
C          0.94068       -0.23030        3.05059
H          0.37420        0.43661        3.71071
H          0.29319       -0.55017        2.23081
H          1.22736       -1.12057        3.61438
H          1.92247        1.21742        1.94291
H         -1.73043        3.83991        0.00951
H         -2.02493        2.77661        1.41885
H          0.33608        2.62438        0.37993
H         -0.50464        1.08248        0.53517
H          0.52223        2.05968       -1.74688
H         -0.65389        0.92163       -1.68499
H         -3.76606        2.71459       -0.38985
H         -2.59066        2.00705       -1.34708
C         -1.79783        2.80428        0.35110
C         -0.51298        2.04516        0.00962
N         -2.91866        2.15285       -0.38139
N         -0.42687        1.88410       -1.43868
