38
2msa2dma_93.log	Energy: -1003284.0843925
S         -3.12591       -0.80864        0.28872
O         -2.34859       -2.05404        0.39937
O         -3.12339       -0.19786       -1.05977
O         -2.74523        0.21153        1.33025
H         -1.81087        1.26173        0.57896
C         -4.82202       -1.23193        0.66700
H         -5.15858       -1.95862       -0.07309
H         -4.85311       -1.66295        1.66795
H         -5.42482       -0.32484        0.61737
S          1.48075       -0.30182       -0.80462
O          0.74254        0.76948       -1.50540
O          1.64059       -0.06065        0.65038
O          2.83407       -0.54932       -1.43829
H          3.90487       -0.42139       -0.47515
C          0.57324       -1.81201       -1.02273
H          0.45244       -1.97372       -2.09403
H          1.15059       -2.61951       -0.57118
H         -0.40306       -1.72656       -0.53454
N         -1.22802        1.96917        0.03622
C         -0.35597        2.70132        0.97181
C         -2.14001        2.81241       -0.76034
H         -0.61992        1.42653       -0.60807
H         -0.97221        3.20118        1.72129
H          0.30961        1.97865        1.44570
H          0.23356        3.43627        0.41959
H         -2.76738        3.39734       -0.08502
H         -1.55513        3.47774       -1.39877
H         -2.76040        2.14483       -1.35925
N          4.68521       -0.31984        0.30408
C          4.45861       -1.37897        1.31545
C          4.60426        1.05176        0.85695
H          5.58598       -0.45887       -0.15073
H          3.44998       -1.24250        1.70817
H          4.53099       -2.35080        0.82640
H          5.20200       -1.30211        2.11153
H          3.59926        1.17785        1.26153
H          5.35920        1.18717        1.63432
H          4.76063        1.76603        0.04807
