43
2msa1eda1tma_204.log	Energy: -1062672.4253860
S         -0.61181       -0.96375       -1.48172
O         -0.30509       -2.37248       -1.77825
O          0.16478        0.00717       -2.31712
O         -0.43794       -0.64510       -0.02394
H          0.60996       -1.55986        0.70007
C         -2.31613       -0.64504       -1.85221
H         -2.46908       -0.84201       -2.91357
H         -2.93384       -1.29614       -1.23272
H         -2.50833        0.39960       -1.59642
S          2.00749        1.82698        0.08139
O          2.46112        0.88586        1.10879
O          0.70999        2.46175        0.26475
O          2.13180        1.16419       -1.33189
H          1.26489        0.70143       -1.69630
C          3.25036        3.08991       -0.07892
H          3.30852        3.60353        0.88120
H          4.20021        2.61284       -0.31876
H          2.94344        3.77543       -0.86811
H         -4.72612        1.98376        1.74415
H         -4.57509        0.36152        2.43338
H         -2.40374        1.45014        2.42743
H         -2.37803        0.07765        1.30648
H         -2.58929        2.87879        0.51316
H         -1.39417        1.82557        0.18390
H         -5.86781        0.35889        0.36737
H         -4.53934        0.87031       -0.44615
C         -4.31332        0.97467        1.56321
C         -2.79596        1.07554        1.46775
N         -4.85393        0.34161        0.36261
N         -2.39978        1.89859        0.32515
N          1.28988       -2.27180        1.11064
C          1.61064       -1.85123        2.49439
H          2.04387       -0.85199        2.45467
H          0.68721       -1.83039        3.07463
H          2.31188       -2.56553        2.93340
C          0.59437       -3.58032        1.05999
H         -0.29633       -3.52866        1.68744
H          0.29877       -3.76513        0.02622
H          1.26749       -4.35948        1.42594
C          2.48446       -2.25586        0.22794
H          2.15715       -2.48319       -0.78782
H          2.92233       -1.25836        0.26688
H          3.19737       -3.00646        0.57846
