30
2msa1eda_34.log	Energy: -953206.2210817
S         -2.17064       -0.76352        0.10230
O         -3.04005        0.30053        0.61055
O         -1.02898       -1.06264        1.03514
O         -1.66347       -0.51969       -1.28092
H         -0.79434        0.86197       -1.43467
C         -3.12683       -2.26414        0.01276
H         -3.49508       -2.48461        1.01478
H         -3.95564       -2.09558       -0.67500
H         -2.47996       -3.06362       -0.34871
S          2.21742       -0.67361       -0.00316
O          2.46312        0.09534        1.21469
O          1.83377        0.09269       -1.19174
O          1.20598       -1.83426        0.25963
H          0.26008       -1.50010        0.56274
C          3.66171       -1.62937       -0.39531
H          4.45681       -0.91848       -0.62162
H          3.91929       -2.23660        0.47194
H          3.43796       -2.25039       -1.26210
H         -0.95640        3.72825       -0.71939
H         -2.07787        2.38498       -0.31954
H         -0.74745        3.05369        1.68320
H         -0.37333        1.40958        1.19452
H          1.38654        3.69719        1.00790
H          1.75229        2.08519        1.11138
H         -0.51830        2.20984       -2.39540
H          0.62391        1.77054       -1.25819
C         -1.03129        2.68340       -0.40821
C         -0.26946        2.45809        0.89709
N         -0.38887        1.83961       -1.45750
N          1.13819        2.77160        0.68395
