30
2msa1eda_165.log	Energy: -953181.0733197
S         -2.24611       -0.67048        0.07164
O         -2.56808        0.74931        0.03039
O         -1.55263       -1.19044        1.24175
O         -1.45331       -1.08613       -1.24357
H         -0.47791       -1.15229       -1.05859
C         -3.74332       -1.58637       -0.20346
H         -4.41588       -1.34359        0.61989
H         -4.17157       -1.26796       -1.15362
H         -3.50507       -2.64929       -0.21240
S          2.17669       -0.90623       -0.01787
O          1.12082       -1.58596       -0.78250
O          3.06104        0.01736       -0.69010
O          3.08135       -2.11968        0.57388
H          2.73204       -2.95067        0.22149
C          1.54323       -0.20150        1.47190
H          1.01929        0.72707        1.21414
H          0.85099       -0.91687        1.91590
H          2.39769        0.00128        2.11844
H         -0.96904        3.73666       -0.31633
H          0.43977        4.34209        0.55878
H          1.06206        3.47800       -1.63202
H          1.85588        2.57180       -0.33368
H         -0.58997        1.59739       -1.63539
H          0.92929        1.09285       -1.98937
H         -0.66110        3.09273        2.12526
H         -1.03313        1.88455        1.09707
C         -0.04440        3.42772        0.20001
C          0.88794        2.76681       -0.80854
N         -0.30746        2.55405        1.34258
N          0.34648        1.48423       -1.25661
