42
2msa2eda_219.log	Energy: -1072754.8095637
S          2.29062        1.41361        0.30245
O          1.82643        0.11693        0.82869
O          3.22870        2.17058        1.10118
O          1.05259        2.32362       -0.00093
C          2.97546        1.09562       -1.31067
H          3.85120        0.45936       -1.17730
H          2.21107        0.59592       -1.90884
H          3.25816        2.05112       -1.75226
S         -1.80360        0.72552       -1.36653
O         -2.38213        1.70450       -0.43237
O         -2.02364       -0.68619       -0.97462
O         -0.34266        0.99726       -1.62274
H          0.39468        1.83959       -0.63270
C         -2.59458        0.94792       -2.94751
H         -2.42656        1.97569       -3.26909
H         -2.15855        0.24198       -3.65437
H         -3.65925        0.75416       -2.81521
H         -1.66898       -1.48631        3.26600
H         -0.01041       -0.84278        3.43093
H         -1.65583        0.84298        4.12219
H         -0.82713        1.39301        2.66693
H         -3.50231        1.28297        2.93085
H         -2.78547        1.13699        1.46339
H         -0.43200       -2.05932        1.28658
H         -1.49621       -0.85177        0.84926
C         -0.95831       -0.74455        2.89521
C         -1.54740        0.65421        3.04963
N         -0.69217       -1.04540        1.47010
N         -2.84655        0.72962        2.39570
H          0.10401       -0.48227        1.13281
H          0.30508       -4.46883       -1.29027
H         -0.98514       -3.25022       -1.14496
H          1.07934       -2.43502       -2.34457
H          0.58276       -1.44211       -0.99309
H          3.02917       -2.88422       -1.23733
H          2.58549       -1.75597       -0.11076
H         -0.50361       -4.42016        0.96053
H          1.01377       -3.78298        0.92253
C          0.02433       -3.51679       -0.81747
C          1.00030       -2.41967       -1.25096
N          0.04346       -3.62350        0.65084
N          2.29972       -2.59671       -0.59938
