35
2msa1ma1dma_29.log	Energy: -978629.8266433
S          2.34211       -0.49826        0.09397
O          3.14229        0.51170       -0.58507
O          1.52987       -1.26754       -0.99992
O          1.45233       -0.06289        1.16836
C          3.43258       -1.74392        0.74650
H          4.05840       -1.26906        1.50272
H          2.82298       -2.53279        1.18791
H          4.03998       -2.12771       -0.07290
S         -1.80695       -1.32225       -0.10301
O         -1.84951       -0.28454       -1.15550
O         -1.91935       -0.75840        1.26422
O         -0.63050       -2.24227       -0.25375
H          0.62344       -1.66623       -0.65701
C         -3.21934       -2.38456       -0.32978
H         -4.11886       -1.77573       -0.23715
H         -3.15224       -2.82853       -1.32292
H         -3.19293       -3.15440        0.44120
N          0.33228        1.79977       -1.43552
H          1.33811        1.65171       -1.48520
C         -0.08230        2.90361       -2.30279
H          0.18032        2.75461       -3.35729
H         -1.16750        3.02411       -2.23942
H          0.38280        3.83305       -1.96212
H         -0.11771        0.93170       -1.72761
N         -0.82534        1.79559        1.07290
C         -0.06354        2.44738        2.15234
C         -2.13087        2.41908        0.78272
H         -0.25992        1.79988        0.15833
H         -0.63668        2.40865        3.08099
H          0.87941        1.91570        2.27053
H          0.12360        3.48865        1.88141
H         -2.76694        2.37268        1.66849
H         -1.97449        3.45989        0.49089
H         -2.59189        1.86097       -0.03307
H         -1.00133        0.79541        1.29462
