42
2msa2eda_380.log	Energy: -1072752.9930618
S         -0.27617        2.15418       -0.03632
O          0.63986        3.14871       -0.58240
O          0.23223        1.45619        1.18698
O         -0.69095        1.11395       -1.05283
C         -1.77749        2.97676        0.45914
H         -1.51166        3.71566        1.21536
H         -2.19728        3.46490       -0.42110
H         -2.46680        2.23392        0.86540
S         -3.25998       -0.84631       -0.02196
O         -3.50027        0.05660        1.09487
O         -2.30817       -1.94406        0.21136
O         -2.86223       -0.05246       -1.30944
H         -1.96055        0.47477       -1.18814
C         -4.79167       -1.55661       -0.56819
H         -5.17085       -2.16143        0.25593
H         -5.48031       -0.74540       -0.80232
H         -4.59339       -2.17254       -1.44464
H          2.25365       -1.28093        1.47828
H          0.99599       -2.31502        2.20527
H          2.71586       -3.63491        0.88238
H          1.07249       -3.84331        0.26070
H          3.15376       -2.13000       -0.89880
H          2.23656       -3.29662       -1.64836
H          0.72406       -1.15078       -0.45581
H         -0.53384       -1.59893        0.52731
C          1.42610       -1.96520        1.26527
C          1.88758       -3.11983        0.37540
N          0.40999       -1.18047        0.52618
N          2.23151       -2.57931       -0.93424
H          0.32598       -0.19439        0.87011
H          5.45663        1.00530       -0.56256
H          4.64938        0.25585       -1.94705
H          3.19552        1.94179       -0.88343
H          2.48964        0.33522       -0.79539
H          3.88786        1.65948        1.41320
H          2.29696        1.32656        1.30919
H          5.70132       -1.38184       -0.45833
H          4.66167       -0.92955        0.72735
C          4.63225        0.33398       -0.85507
C          3.31120        0.95416       -0.41832
N          4.77498       -1.00860       -0.28071
N          3.22127        0.98627        1.04455
