37
2msa1ma1eda_263.log	Energy: -1013359.9674089
S         -1.52509       -1.55947       -0.35260
O         -0.17143       -2.12699       -0.03141
O         -1.48716       -0.63818       -1.50510
O         -2.15895       -0.96275        0.84709
C         -2.51696       -2.96646       -0.81417
H         -2.51925       -3.67034        0.01807
H         -3.52605       -2.61067       -1.02316
H         -2.07319       -3.41813       -1.70145
S          2.51385       -0.06640       -0.41471
O          3.02076       -0.35964        0.91727
O          1.56616        1.05593       -0.51864
O          1.92780       -1.33511       -1.10748
H          1.02894       -1.65654       -0.67676
C          3.86944        0.26760       -1.51142
H          4.54342       -0.58844       -1.49157
H          3.47047        0.43443       -2.51128
H          4.36780        1.16085       -1.13412
N         -0.70079        0.38809        3.18698
H         -1.24039        0.61247        4.01655
C          0.67445        0.01541        3.54645
H          0.72808       -0.83863        4.23253
H          1.23334       -0.23739        2.64258
H          1.17017        0.86940        4.01568
H         -1.17180       -0.39136        2.72460
H         -1.99688        3.37820        0.81940
H         -0.23787        3.57827        0.57733
H         -1.54000        4.10499       -1.48362
H         -0.42695        2.75264       -1.73089
H         -2.96892        2.60342       -2.40507
H         -2.25113        1.27929       -1.75158
H         -0.79045        1.42271        1.73946
H         -1.68877        0.99393        0.43357
C         -1.12028        3.00243        0.28738
C         -1.35151        3.05987       -1.21994
N         -0.90192        1.60011        0.70112
N         -2.50952        2.24983       -1.57598
H         -0.05338        1.22937        0.23814
