40
2msa1dma1eda_26.log	Energy: -1038037.4924059
S          2.89280       -0.27398       -0.37911
O          2.62553       -1.40341       -1.28346
O          2.18112       -0.43255        0.93401
O          2.63086        1.06649       -0.97230
C          4.63487       -0.29100        0.00510
H          4.87316       -1.25372        0.45747
H          5.18307       -0.15744       -0.92767
H          4.84501        0.52422        0.69739
S         -2.91504       -0.30644       -0.21605
O         -3.05165        1.09687        0.20963
O         -3.16154       -1.32878        0.81114
O         -1.56248       -0.53119       -0.87604
C         -4.10525       -0.57256       -1.52041
H         -5.09840       -0.43958       -1.09031
H         -3.92729        0.15986       -2.30789
H         -3.98323       -1.58704       -1.90012
N          0.06736       -2.15229        0.64262
C          0.36863       -3.38262       -0.11824
C         -0.50517       -2.38561        1.98529
H          0.93473       -1.57343        0.73939
H         -0.56369       -3.91519       -0.31212
H          0.85769       -3.09382       -1.04818
H          1.04361       -4.00906        0.46731
H         -1.46771       -2.88544        1.88459
H          0.19510       -2.98447        2.57033
H         -0.66528       -1.42138        2.46678
H         -0.59492       -1.56842        0.07982
H         -1.05092        1.84762        1.15505
H          0.66294        1.34068        1.30273
H          0.30807        3.71345        2.08781
H          1.41602        3.61782        0.71058
H         -1.41275        4.39047        0.52885
H         -0.09742        5.26521        0.08280
H         -0.59666        0.89554       -0.85632
H         -0.37748        2.55425       -1.12732
C         -0.02925        2.02739        0.81079
C          0.37351        3.48189        1.01633
N         -0.00449        1.72933       -0.64490
N         -0.46651        4.32609        0.16643
H          0.97892        1.54025       -0.94443
