43
2msa1eda1tma_160.log	Energy: -1062679.1897812
S         -1.81336        0.87456       -1.30088
O         -1.31468        1.37114        0.01219
O         -3.10819        1.42873       -1.69788
O         -1.78134       -0.63646       -1.35087
H         -2.19939       -1.46545       -0.20286
C         -0.60193        1.34062       -2.52493
H         -0.56039        2.43039       -2.56458
H          0.36453        0.91104       -2.24605
H         -0.93842        0.94625       -3.48428
S          2.02974       -1.29765       -0.59579
O          3.23221       -2.05004       -0.22721
O          2.27703       -0.06116       -1.38364
O          1.15696       -0.96799        0.59237
H          1.27479        0.72119        0.70827
C          1.02560       -2.35680       -1.62562
H          1.58144       -2.55496       -2.54282
H          0.85364       -3.29005       -1.08618
H          0.08592       -1.84093       -1.83245
H         -2.00082       -2.86712        2.48002
H         -0.65201       -2.54207        1.33847
H         -0.89961       -0.84152        3.27284
H         -0.75296       -0.22989        1.61542
H         -2.97938        0.14378        3.33754
H         -2.66577        0.78664        1.83990
H         -2.91920       -2.95145        0.29306
H         -3.36380       -1.49826        1.01837
C         -1.59807       -2.17213        1.73731
C         -1.40675       -0.76123        2.30618
N         -2.58466       -2.05446        0.63404
N         -2.69113       -0.06673        2.39199
N          1.65067        1.64703        1.05542
C          0.83816        2.03403        2.23080
H         -0.19414        2.15845        1.90303
H          0.90280        1.23947        2.97534
H          1.22857        2.96643        2.64581
C          3.06359        1.37255        1.42119
H          3.08438        0.55504        2.14169
H          3.59438        1.06543        0.52012
H          3.50407        2.27730        1.84671
C          1.55756        2.65325       -0.03090
H          2.06291        2.24194       -0.90442
H          0.50181        2.81443       -0.24542
H          2.03551        3.57702        0.30517
