42
2msa2eda_350.log	Energy: -1072754.1050211
S         -1.53560        2.11061       -0.34120
O         -2.53667        1.15369       -0.81298
O         -1.57999        3.47340       -0.83294
O         -0.13982        1.44267       -0.68627
C         -1.54755        2.12460        1.43714
H         -2.47030        2.62201        1.73908
H         -1.52708        1.08386        1.77127
H         -0.67734        2.68139        1.78738
S          2.44366        0.18578        0.82267
O          3.27615       -0.02871       -0.37083
O          1.44528       -0.88831        1.05073
O          1.79089        1.54702        0.84568
H          0.67082        1.61954       -0.03656
C          3.53037        0.20617        2.23523
H          4.02088       -0.76594        2.29031
H          4.26319        0.99934        2.08690
H          2.93565        0.39147        3.12961
H         -0.60312       -1.98279       -3.20203
H         -0.94039       -0.25057       -2.93107
H          1.31514       -0.65851       -4.06318
H          1.44549        0.19222       -2.52421
H          2.48076       -2.38879       -3.11796
H          2.73569       -1.42397       -1.79259
H         -1.33141       -1.69978       -0.91938
H          0.38196       -1.96314       -0.95864
C         -0.27701       -1.07998       -2.67895
C          1.19107       -0.76986       -2.98072
N         -0.38903       -1.33662       -1.22590
N          2.03261       -1.81964       -2.41298
H         -0.23964       -0.45395       -0.71857
H         -3.72022       -2.34954        1.81521
H         -3.09953       -3.69398        0.84578
H         -1.57202       -3.22729        2.69142
H         -0.78761       -2.90131        1.15329
H         -1.52950       -0.97514        3.15795
H         -0.27178       -0.97569        2.08871
H         -3.75267       -2.00771       -0.65234
H         -2.92414       -0.84286        0.13064
C         -2.92084       -2.64885        1.12098
C         -1.57253       -2.54526        1.82940
N         -2.91848       -1.83708       -0.10063
N         -1.26791       -1.16238        2.19663
