34
2msa1a1eda_09.log	Energy: -988715.6820339
S         -2.44276       -1.04077       -0.04689
O         -2.92987        0.00858        0.86379
O         -1.96237       -2.27182        0.64766
O         -1.41747       -0.54758       -1.01635
C         -3.83791       -1.56033       -1.02951
H         -4.59220       -1.96246       -0.35285
H         -4.22322       -0.68846       -1.55856
H         -3.50194       -2.32183       -1.73308
S          2.96509       -0.15892       -0.13112
O          2.72397        0.99306       -1.03625
O          2.92572       -1.48065       -0.79204
O          2.04743       -0.11229        1.05746
C          4.61587        0.05642        0.50770
H          5.30788        0.03344       -0.33447
H          4.66276        1.01865        1.01755
H          4.82630       -0.75858        1.20036
N          0.71695       -2.46467        0.68695
H          1.00725       -3.25780        1.25128
H         -0.33775       -2.41614        0.62810
H          1.10936       -1.57770        1.07933
H          1.15977       -2.52153       -0.23648
H          0.08070        3.72214       -0.50077
H         -0.72138        2.88525       -1.85173
H         -2.33964        3.94805       -0.16602
H         -2.58928        2.21841       -0.42960
H         -1.92921        3.43265        2.01123
H         -2.17894        1.82984        1.67535
H          1.08588        1.53856       -0.75576
H          0.17554        1.61294        0.64074
C         -0.57205        2.88786       -0.76990
C         -1.89976        2.95757       -0.00912
N          0.11813        1.63942       -0.38431
N         -1.67194        2.66777        1.40315
H         -0.43714        0.79844       -0.66617
