32
2msa2ma_169.log	Energy: -953957.3983723
S          2.11212       -1.03472       -0.01316
O          1.44080       -2.16210       -0.67711
O          1.33893       -0.49663        1.14504
O          2.51547        0.06080       -0.95080
C          3.64906       -1.65116        0.65675
H          4.16510       -0.82811        1.15143
H          3.41381       -2.44311        1.36817
H          4.24475       -2.04017       -0.16926
S         -2.42504       -0.58034        0.02711
O         -2.68826        0.40849        1.05238
O         -1.89201       -0.14944       -1.26635
O         -3.83809       -1.30735       -0.30089
H         -3.91435       -1.40172       -1.26113
C         -1.46210       -1.89984        0.69851
H         -0.51983       -1.45766        1.04395
H         -2.03324       -2.33382        1.51950
H         -1.25341       -2.62027       -0.09195
N          0.38561        1.64595       -1.39489
H          1.24917        1.04313       -1.32259
H         -0.39962        1.02265       -1.61089
C          0.53468        2.73101       -2.37780
H         -0.37362        3.33473       -2.40313
H          1.37891        3.35759       -2.08900
H          0.72220        2.31080       -3.36635
H          0.20497        1.99772       -0.39968
N         -0.02089        2.12891        1.29712
H         -0.99115        1.92545        1.52553
C          0.47634        3.26966        2.06674
H          0.39516        3.13245        3.15239
H          1.52950        3.43631        1.82516
H         -0.07814        4.17198        1.79363
H          0.51092        1.28084        1.51212
