42
2msa2eda_370.log	Energy: -1072754.0958344
S         -0.98671       -2.36125        0.03712
O         -0.62690       -3.71179       -0.34001
O         -1.46332       -1.60772       -1.25897
O          0.03101       -1.54335        0.71909
H          0.64766        0.16579        0.47542
C         -2.43587       -2.37685        1.06350
H         -3.20747       -2.93917        0.53732
H         -2.16595       -2.87220        1.99695
H         -2.74354       -1.34072        1.23001
S         -2.18144        1.67327        0.05236
O         -1.25558        2.54394        0.82251
O         -3.04481        0.80935        0.86631
O         -1.39869        0.89491       -0.97760
H         -1.50175       -0.58763       -1.12124
C         -3.23478        2.76223       -0.88573
H         -3.80653        3.36640       -0.18094
H         -2.60521        3.39151       -1.51455
H         -3.89874        2.14725       -1.49340
H          2.35926       -0.99701       -0.96242
H          2.78052       -1.40628       -2.62438
H          4.50753        0.03647       -1.90986
H          3.46606        1.01063       -2.96098
H          3.82429        1.20821       -0.08557
H          3.62355        2.40925       -1.19874
H          0.49327       -0.81700       -2.57236
H          0.78758        0.66260       -1.96988
C          2.44394       -0.58338       -1.98485
C          3.51583        0.50077       -1.99472
N          1.19104       -0.08215       -2.52981
N          3.30389        1.48898       -0.91901
H          1.90122        1.85003        2.54596
H          0.61840        0.65394        2.78261
H          2.58769       -0.48202        3.42292
H          2.19580       -1.10265        1.82045
H          4.33742        0.78728        2.47308
H          4.43973       -0.63605        1.68865
H          0.30213        1.75926        0.74218
H          1.84353        1.30985        0.12754
C          1.51004        0.88965        2.19761
C          2.54515       -0.21604        2.35773
N          1.06838        1.05421        0.79325
N          3.85161        0.18025        1.81952
