32
2msa1a1dma_18.log	Energy: -953973.6743992
S         -1.56629       -1.33613       -0.02615
O         -2.84384       -0.77253        0.42669
O         -0.57142       -1.45377        1.09116
O         -0.97653       -0.60945       -1.19085
C         -1.86742       -3.00236       -0.58311
H         -2.26587       -3.56823        0.25906
H         -2.59107       -2.96166       -1.39731
H         -0.92397       -3.43000       -0.92317
S          2.49653       -0.06431       -0.00141
O          3.92008        0.02772        0.24624
O          1.64538        1.08597        0.31980
O          1.96369       -1.33506        0.76488
H          0.95079       -1.34630        0.86342
C          2.22021       -0.47616       -1.71039
H          2.58459        0.36113       -2.30738
H          2.78880       -1.37886       -1.93453
H          1.14725       -0.62836       -1.84903
N         -0.55719        1.39411        2.26038
H         -0.91100        1.76509        3.13514
H          0.45627        1.48394        2.24544
H         -0.75336        0.39229        2.22950
N         -1.23475        2.05605       -0.34337
C         -2.68612        2.30100       -0.47891
C         -0.38101        3.13328       -0.87906
H         -1.00491        1.89204        0.69008
H         -2.93214        2.44362       -1.53289
H         -3.21197        1.42885       -0.08807
H         -2.95043        3.19695        0.08626
H         -0.57841        3.25992       -1.94549
H         -0.60942        4.06349       -0.35502
H          0.66021        2.85831       -0.71416
H         -1.00831        1.14615       -0.79441
