25
2msa1ma_06.log	Energy: -893811.7440495
S         -2.10257       -0.47358        0.06366
O         -2.28166        0.19025        1.35884
O         -0.81023       -1.23873       -0.02012
O         -2.24171        0.45248       -1.10196
H         -1.13688        1.63613       -1.00885
C         -3.37994       -1.69594       -0.13802
H         -4.34090       -1.18282       -0.09942
H         -3.23959       -2.18477       -1.10179
H         -3.29193       -2.41220        0.67889
S          2.38695       -0.27011        0.05537
O          3.65520       -0.06013        0.71665
O          1.92857        0.76364       -0.89217
O          1.28923       -0.48596        1.15702
H          0.38761       -0.76620        0.74290
C          2.39745       -1.81034       -0.83453
H          2.69096       -2.59681       -0.13945
H          1.39352       -1.98231       -1.22606
H          3.12514       -1.71374       -1.64072
N         -0.33501        2.30165       -0.80356
H          0.53953        1.73692       -0.86520
C         -0.48060        2.87891        0.55679
H          0.40282        3.47059        0.79572
H         -1.37823        3.49544        0.58984
H         -0.59244        2.05722        1.26421
H         -0.30136        3.02201       -1.52117
