35
2msa1ma1dma_153.log	Energy: -978621.0711041
S          1.66998       -0.61758       -0.48029
O          1.05327        0.36756       -1.37483
O          1.82462       -0.21433        0.92184
O          3.07534       -1.00505       -1.05196
H          3.83915       -0.86684       -0.30215
C          0.75470       -2.12784       -0.58101
H          0.70348       -2.41303       -1.63199
H          1.28377       -2.87886        0.00591
H         -0.25147       -1.95704       -0.17735
S         -2.91536       -0.66827        0.26656
O         -2.20621       -1.93076        0.53705
O         -2.80302       -0.18547       -1.12777
O         -2.54110        0.42621        1.23302
H         -1.55396        1.36734        0.44317
C         -4.64657       -0.98221        0.57935
H         -4.97619       -1.75793       -0.11236
H         -4.75347       -1.31682        1.61137
H         -5.20022       -0.05792        0.41310
N          4.78728       -0.56782        0.77776
H          4.25593       -0.77968        1.61945
C          5.11054        0.86716        0.73240
H          5.73554        1.18868        1.57121
H          5.62586        1.08664       -0.20452
H          4.17333        1.42633        0.75040
H          5.62813       -1.13714        0.78397
N         -0.91210        1.98910       -0.14413
C         -0.01755        2.74965        0.74821
C         -1.75345        2.81239       -1.03515
H         -0.33736        1.34491       -0.71210
H         -0.62177        3.36874        1.41342
H          0.57208        2.03913        1.32873
H          0.64486        3.37942        0.15081
H         -2.38144        3.46339       -0.42428
H         -1.11794        3.41290       -1.68915
H         -2.37785        2.13213       -1.61488
