42
2msa2eda_413.log	Energy: -1072752.8779703
S         -1.05046       -1.90198       -0.20257
O         -0.74346       -1.17108        1.04993
O         -0.32303       -1.32569       -1.37842
O         -2.50924       -1.96365       -0.48627
H         -2.73319       -0.29979       -1.03854
C         -0.44906       -3.56295       -0.00750
H          0.63093       -3.49524        0.14065
H         -0.94284       -4.00740        0.85670
H         -0.68122       -4.11438       -0.91858
S          2.85298       -0.67961        0.09097
O          4.10995        0.01212       -0.13946
O          2.77054       -2.12706       -0.05911
O          1.79433        0.00326       -0.88512
H          1.00730       -0.60567       -1.09240
C          2.25006       -0.23660        1.70401
H          2.97207       -0.61878        2.42711
H          2.18741        0.85401        1.73818
H          1.26916       -0.69765        1.83352
H          0.70173        2.30401       -1.79634
H         -0.50352        3.55431       -1.47644
H          1.68767        4.42608       -0.99041
H          0.75245        4.31644        0.50544
H          2.78564        2.33737       -0.27390
H          2.90850        3.44405        0.92131
H          0.12045        1.20330        0.16459
H         -0.90955        2.36107        0.66744
C          0.21469        2.87612       -0.99985
C          1.25732        3.71756       -0.26325
N         -0.52047        1.92231       -0.16642
N          2.24844        2.87855        0.39948
H         -3.74749        2.39844       -0.33641
H         -4.82161        1.09759       -0.91367
H         -4.81039        1.18945        1.52175
H         -4.14176       -0.34739        0.95475
H         -2.94158        1.06784        2.77696
H         -2.04115        0.30224        1.65219
H         -2.82409        0.94598       -2.14164
H         -1.80190        1.16205       -0.78822
C         -3.89180        1.31549       -0.38101
C         -3.94748        0.73180        1.02829
N         -2.75698        0.73871       -1.14759
N         -2.73646        1.03983        1.78523
