43
2msa1eda1tma_135.log	Energy: -1062678.5421475
S         -0.16844        2.19300        0.02518
O          0.34922        1.60577       -1.24529
O          0.65482        1.86184        1.19495
O         -1.62276        1.86535        0.21290
C         -0.12887        3.95903       -0.20213
H          0.90956        4.24974       -0.36193
H         -0.73896        4.20969       -1.06972
H         -0.52525        4.42290        0.70104
S         -3.43300       -0.99784        0.07069
O         -4.18068       -2.04846        0.72705
O         -2.56076       -1.36998       -1.05318
O         -2.58447       -0.25833        1.17239
H         -2.13400        0.59624        0.81434
C         -4.53229        0.26874       -0.52247
H         -5.12178       -0.16755       -1.32930
H         -5.17179        0.57617        0.30475
H         -3.92600        1.10096       -0.88388
H          1.26052       -0.58531        0.71036
H         -0.33819       -1.27295        1.01568
H          1.57126       -2.87446        1.52648
H          0.45235       -3.51910        0.31528
H          2.99010       -2.16550       -0.29518
H          2.61203       -3.75779       -0.61633
H         -0.76920       -1.39454       -1.20852
H          0.26864       -0.07957       -1.23398
C          0.56010       -1.36301        0.40425
C          1.20217       -2.74182        0.50069
N          0.20316       -1.10383       -1.01938
N          2.23646       -2.82181       -0.52763
H          0.88085       -1.63662       -1.58398
N          4.02553       -0.39508        0.10133
C          5.36700       -0.93378       -0.06131
H          5.59582       -1.61922        0.76068
H          5.43369       -1.48931       -1.00251
H          6.13862       -0.14229       -0.07556
C          3.67148        0.47226       -1.01559
H          3.69770       -0.09930       -1.94934
H          2.66319        0.87348       -0.88035
H          4.36775        1.32507       -1.11517
C          3.89684        0.31066        1.37124
H          2.89724        0.74496        1.46382
H          4.05972       -0.38683        2.19882
H          4.63167        1.13158        1.46170
