42
2msa2eda_330.log	Energy: -1072756.3190063
S          0.63198        2.15544       -0.54158
O          1.02364        1.89666        0.85767
O         -0.81136        2.34409       -0.76130
O          1.17227        1.08794       -1.47423
C          1.45574        3.65525       -1.04575
H          1.09075        4.46506       -0.41347
H          2.52883        3.51694       -0.91239
H          1.21641        3.84289       -2.09237
S          2.55759       -1.47717        0.46143
O          3.38194       -2.66875        0.44621
O          1.09960       -1.62480        0.47983
O          2.97095       -0.60004       -0.78566
H          2.26373        0.09321       -1.01742
C          3.01994       -0.45465        1.84187
H          2.75516       -0.99694        2.75069
H          4.09704       -0.29437        1.79224
H          2.46960        0.48597        1.76032
H         -1.21717       -2.08988       -2.78554
H         -0.20552       -2.44779       -1.35524
H         -2.47856       -3.65820       -1.44257
H         -2.11837       -2.79512        0.04687
H         -4.33036       -2.38543       -1.53277
H         -3.80949       -1.37543       -0.33584
H         -0.25291       -0.08378       -1.63864
H         -1.92303       -0.09875       -1.75849
C         -1.14268       -2.00754       -1.69808
C         -2.34632       -2.65875       -1.01755
N         -1.11654       -0.57046       -1.34827
N         -3.54371       -1.84052       -1.20623
H         -1.19610       -0.42452       -0.28702
H         -2.27133        0.86050        2.97945
H         -1.46210        1.83693        1.74471
H         -3.85842        2.05323        1.53227
H         -3.15899        1.30404        0.09305
H         -4.43526       -0.25030        2.24282
H         -5.15533        0.15351        0.84485
H         -0.31781       -0.09099        1.59650
H         -1.61148       -1.07105        1.82435
C         -2.07208        0.94511        1.89935
C         -3.38188        1.13790        1.15150
N         -1.30930       -0.20133        1.39837
N         -4.25117       -0.04296        1.26439
