28
2msa1dma_33.log	Energy: -918461.2120879
S          2.19920       -0.82328        0.09778
O          1.44694       -1.52380        1.15410
O          3.03745        0.29963        0.56598
O          1.28611       -0.36890       -1.01866
C          3.29195       -2.01840       -0.65287
H          3.98436       -2.36257        0.11578
H          2.69227       -2.84833       -1.02711
H          3.83026       -1.53157       -1.46610
S         -2.68981       -0.24242        0.03945
O         -3.38776       -0.31716        1.31089
O         -2.08621        1.01473       -0.37738
O         -3.76036       -0.62972       -1.11963
H         -4.59904       -0.84833       -0.68840
C         -1.50717       -1.54804       -0.11250
H         -0.72748       -1.40272        0.64313
H         -2.02916       -2.49219        0.04248
H         -1.04904       -1.48392       -1.09943
N          0.52150        2.04147       -0.22383
C          0.51248        2.07689        1.25894
C          1.49279        2.97342       -0.83303
H          0.78029        1.05512       -0.55106
H          0.24254        3.08005        1.59383
H         -0.22091        1.35551        1.61681
H          1.50553        1.79355        1.60895
H          1.27832        3.99596       -0.51697
H          2.48797        2.66852       -0.50552
H          1.42498        2.89177       -1.91795
H         -0.43125        2.18864       -0.56284
