28
2msa1dma_47.log	Energy: -918454.9858072
S         -2.51775       -0.33691        0.12029
O         -3.96040       -0.43786        0.26396
O         -1.67643       -0.05643        1.26687
O         -2.24353        0.87388       -0.94224
H         -3.09394        1.11596       -1.33578
C         -1.87939       -1.73853       -0.75426
H         -1.96893       -2.59018       -0.07762
H         -2.48681       -1.89238       -1.64598
H         -0.83150       -1.52353       -0.99363
S          2.08487       -0.95585       -0.10322
O          3.12328       -1.74409       -0.75794
O          0.94318       -0.54617       -0.96146
O          2.62795        0.26042        0.62048
H          1.93460        1.47978        0.28329
C          1.38539       -1.96351        1.19910
H          1.02005       -2.88694        0.74678
H          2.17125       -2.18676        1.92099
H          0.56741       -1.41149        1.66511
N          1.41044        2.44272        0.13049
C          0.39177        2.56720        1.19736
C          0.85169        2.50596       -1.23963
H          2.11811        3.16646        0.24530
H         -0.31039        1.73768        1.10395
H          0.89082        2.50639        2.16488
H         -0.13527        3.51906        1.10211
H          0.14033        1.68888       -1.34986
H          0.36661        3.47284       -1.39345
H          1.66149        2.36475       -1.95540
