34
2msa1a1eda_190.log	Energy: -988701.0036964
S         -1.40485       -1.66394        0.01325
O         -1.54632       -1.06399       -1.34468
O         -2.03977       -0.85646        1.06866
O          0.01760       -2.01541        0.32039
C         -2.25404       -3.22792       -0.06212
H         -3.30306       -3.03034       -0.28272
H         -1.79794       -3.82844       -0.84895
H         -2.14821       -3.71359        0.90793
S          2.59085        0.14327       -0.15444
O          3.68070        0.96047        0.33513
O          1.67166        0.70615       -1.14425
O          1.77477       -0.35286        1.10650
H          1.01856       -0.97953        0.82663
C          3.22180       -1.38123       -0.82573
H          3.77648       -1.13359       -1.73137
H          3.87603       -1.83515       -0.08170
H          2.37085       -2.02602       -1.05175
N         -0.41850        1.08354        2.83591
H          0.54982        0.82218        2.67006
H         -0.99597        0.32551        2.47226
H         -0.56152        1.13921        3.83810
H         -2.01160        3.25992       -1.92912
H         -2.95384        1.74497       -1.88366
H         -3.12262        3.06711        0.28753
H         -2.42969        1.45400        0.51326
H         -0.99035        3.96338        0.70291
H         -0.75611        2.51250        1.49916
H         -0.46612        1.63897       -2.60963
H         -0.16885        1.83955       -0.98774
C         -2.11290        2.28498       -1.44462
C         -2.24664        2.44127        0.07517
N         -0.86720        1.51726       -1.68343
N         -0.99289        2.95604        0.60323
H         -1.03020        0.48627       -1.53227
