40
2msa1dma1eda_503.log	Energy: -1038009.5247419
S         -0.11823       -2.04211       -0.10977
O          0.90330       -2.96333        0.38598
O         -0.37011       -0.87128        0.79283
O         -1.43129       -2.69235       -0.42970
H         -2.67831       -1.81180       -0.26428
C          0.47299       -1.37044       -1.65376
H          1.45611       -0.93615       -1.46105
H          0.54295       -2.19228       -2.36715
H         -0.22168       -0.60125       -1.99241
S          0.45693        2.36342       -0.20721
O          0.23200        3.73961        0.18695
O         -0.47613        1.74367       -1.15465
O          0.50355        1.49056        1.10950
H          0.25875        0.51915        0.93113
C          2.10420        2.19041       -0.85262
H          2.11043        2.62091       -1.85448
H          2.77089        2.74455       -0.19143
H          2.36918        1.12731       -0.85114
N          3.14573       -0.76800        0.33421
C          3.68466        0.06495        1.39857
C          4.17949       -1.48720       -0.39479
H          2.49769       -1.44787        0.72632
H          4.32690        0.84177        0.96572
H          2.86569        0.56038        1.92651
H          4.29093       -0.49725        2.12825
H          4.80103       -0.77752       -0.95383
H          4.84490       -2.07716        0.25767
H          3.71353       -2.17139       -1.10933
H         -4.89000       -0.38305        1.18140
H         -3.38835       -1.06404        1.86497
H         -3.43878        1.53010        1.62064
H         -2.04264        0.68618        0.94368
H         -4.10203        2.04261       -0.54532
H         -2.52509        1.72373       -0.92197
H         -4.35503       -1.96773       -0.38920
H         -3.63327       -0.55441       -0.96636
C         -3.81494       -0.51031        1.02787
C         -3.11471        0.84411        0.83170
N         -3.61939       -1.28562       -0.22532
N         -3.37685        1.33649       -0.51971
