40
2msa1dma1eda_556.log	Energy: -1038005.5015088
S          3.70399       -0.25285       -0.57891
O          5.12546       -0.31333       -0.85236
O          2.88134        0.72535       -1.29652
O          3.51831       -0.01130        0.97422
H          2.63653        0.47284        1.18656
C          2.99131       -1.86385       -0.81716
H          3.07268       -2.09387       -1.88034
H          3.57084       -2.57301       -0.22601
H          1.94791       -1.84607       -0.49272
S         -1.24057       -1.20459        0.52295
O          0.01638       -1.95280        0.56841
O         -1.63216       -0.71384       -0.82956
O         -1.24891       -0.03596        1.49424
H         -1.24561        1.27798        0.60777
C         -2.54556       -2.27940        1.08101
H         -2.54150       -3.15934        0.43662
H         -2.33170       -2.55858        2.11275
H         -3.49620       -1.74847        0.99625
N         -4.62394       -0.06362       -0.59370
C         -4.41041        1.15676        0.15477
C         -5.61394        0.07723       -1.64576
H         -3.73910       -0.39138       -0.97297
H         -5.33283        1.44338        0.67159
H         -3.64195        0.99096        0.91679
H         -4.11569        2.02246       -0.47658
H         -6.59420        0.28634       -1.20332
H         -5.38781        0.88910       -2.36120
H         -5.69247       -0.85947       -2.20312
H          0.57465        3.32162        1.28779
H          2.08466        2.91077        0.46446
H          0.49946        2.85098       -1.25756
H          0.77049        1.15394       -0.85842
H         -1.59156        2.79257       -0.13647
H         -1.50448        1.34113       -0.98339
H          1.67210        1.70331        2.58908
H          0.54388        0.78882        1.82116
C          1.11956        2.50816        0.78364
C          0.37656        2.09741       -0.47819
N          1.37465        1.36970        1.67680
N         -1.08803        1.91396       -0.23748
