42
2msa2eda_267.log	Energy: -1072754.1430419
S          0.89762       -1.20580       -1.65422
O          2.18314       -1.22862       -0.93371
O          0.50111        0.08718       -2.22391
O         -0.19350       -1.77804       -0.75650
C          1.02940       -2.36946       -2.99901
H          1.81600       -2.01768       -3.66702
H          1.28062       -3.34566       -2.58465
H          0.07118       -2.40114       -3.51796
S         -2.86889        0.01464        0.41224
O         -2.40242        1.35468        0.08570
O         -2.41618       -0.54273        1.69508
O         -2.57307       -0.99694       -0.74562
H         -1.57253       -1.28478       -0.79577
C         -4.64340       -0.01565        0.38080
H         -4.98363        0.67084        1.15651
H         -4.97186        0.32006       -0.60254
H         -4.97712       -1.03232        0.58460
H          1.38129       -0.31391        3.61869
H          0.85503       -2.00689        3.44029
H          3.30399       -1.79840        3.29395
H          2.62500       -2.42763        1.78829
H          4.32755       -0.45787        1.77775
H          3.06028       -0.42618        0.74612
H         -0.55582       -0.66808        2.09021
H          0.67457        0.20382        1.36091
C          1.31610       -1.15752        2.92776
C          2.70352       -1.52816        2.41943
N          0.43141       -0.75275        1.81322
N          3.31755       -0.40187        1.73165
H          0.42686       -1.42459        1.03050
H          2.25343        2.72479        1.05257
H          2.56046        1.58996       -0.26973
H          2.61790        3.96233       -1.01771
H          1.41506        2.98736       -1.87497
H          0.75117        5.28348       -0.93725
H         -0.27795        4.06167       -0.63290
H         -0.06757        2.24984        0.85845
H          0.17528        1.29215       -0.43702
C          1.84667        2.32058        0.12102
C          1.66266        3.43874       -0.90206
N          0.60170        1.61153        0.43504
N          0.65916        4.40338       -0.44357
