38
2msa1ma1tma_129.log	Energy: -1003268.3570787
S         -1.96993       -0.84456        0.70929
O         -1.61187        0.25525        1.60412
O         -1.28701       -0.72673       -0.64587
O         -3.44125       -0.98001        0.46697
H         -3.79040       -0.06915       -0.91055
C         -1.40915       -2.37603        1.40903
H         -0.32660       -2.30094        1.52887
H         -1.90956       -2.49821        2.36997
H         -1.67741       -3.18068        0.72456
S          2.24676       -1.48321       -0.41435
O          2.88560       -2.71247       -0.84491
O          1.63021       -1.42438        0.90907
O          1.14722       -1.07892       -1.49563
H          0.25072       -0.95110       -1.06629
C          3.39807       -0.14260       -0.57725
H          4.20195       -0.33210        0.13581
H          3.78428       -0.15439       -1.59690
H          2.87080        0.79309       -0.35040
N         -3.40335        0.53338       -1.68915
H         -2.45713        0.10501       -1.76547
C         -3.28724        1.94110       -1.23245
H         -2.73049        2.52034       -1.96857
H         -4.28327        2.35929       -1.09197
H         -2.75143        1.93601       -0.28187
H         -3.93033        0.43031       -2.55263
N          1.55642        2.44523        0.31898
C          2.23460        3.72536        0.24970
H          3.19781        3.66316        0.76551
H          2.42289        3.99131       -0.79548
H          1.64851        4.54179        0.71497
C          0.30896        2.46373       -0.42130
H          0.50734        2.68745       -1.47561
H         -0.17091        1.48479       -0.35129
H         -0.39880        3.22281       -0.02976
C          1.34846        2.01833        1.69613
H          0.86269        1.04071        1.71211
H          2.31593        1.93556        2.20134
H          0.71730        2.72781        2.26258
