40
2msa1dma1eda_23.log	Energy: -1038038.0997096
S         -3.00029       -0.15884       -0.39691
O         -2.71607       -1.61755       -0.29233
O         -2.63763        0.43066       -1.70352
O         -2.39053        0.59519        0.74138
C         -4.76750        0.00042       -0.22136
H         -5.23679       -0.54767       -1.03861
H         -5.05621       -0.41975        0.74197
H         -5.01922        1.05971       -0.27448
S          2.78581       -0.31852       -0.40029
O          3.13829        1.07446       -0.06814
O          1.39308       -0.40014       -0.99750
O          2.93956       -1.29973        0.68643
C          3.87077       -0.81908       -1.72614
H          3.73906       -0.12787       -2.55853
H          4.89323       -0.77696       -1.34951
H          3.61077       -1.83583       -2.02065
N         -0.16437       -1.97917        0.66452
C         -0.04718       -1.39209        2.01967
C          0.29927       -3.37802        0.57346
H         -1.15379       -1.90065        0.33068
H          1.00246       -1.42298        2.31464
H         -0.39271       -0.35871        1.97488
H         -0.66931       -1.96802        2.70701
H          1.35934       -3.40757        0.82988
H         -0.28196       -3.99560        1.26012
H          0.15170       -3.72932       -0.44816
H          0.41128       -1.40497        0.01090
H          1.41342        2.89262       -0.83119
H         -0.10753        3.81852       -0.88120
H          1.13243        4.10074        1.26767
H         -0.50120        3.45509        1.48758
H          1.90091        1.75666        1.46084
H          0.95869        2.11545        2.77322
H         -0.87786        1.73251       -1.54032
H          0.35565        0.92719       -0.77463
C          0.41414        2.98859       -0.40027
C          0.49826        3.21538        1.10572
N         -0.31445        1.72524       -0.68627
N          0.96034        2.00500        1.76662
H         -0.99165        1.46358        0.06198
