38
2msa2dma_178.log	Energy: -1003275.9722513
S          0.96612        1.90810       -0.38287
O          1.34190        1.48690        0.96161
O         -0.37850        2.47035       -0.54022
O          1.21746        0.77375       -1.42790
H          0.42996        0.09244       -1.55793
C          2.15667        3.09431       -0.96221
H          2.10333        3.95444       -0.29418
H          3.14348        2.63387       -0.91662
H          1.89969        3.37447       -1.98311
S         -1.14907       -1.66966       -0.68865
O         -0.59555       -0.87794       -1.83525
O         -2.59384       -1.90552       -0.79667
O         -0.77277       -1.01349        0.61221
H         -1.82134        0.05952        1.01091
C         -0.29116       -3.22407       -0.70098
H         -0.45706       -3.68686       -1.67419
H          0.76772       -3.00442       -0.52426
H         -0.70427       -3.84325        0.09602
N          2.26741       -1.65946        0.66547
C          3.58039       -1.12644        0.34883
C          2.21325       -2.29354        1.97088
H          1.59108       -0.90089        0.65670
H          4.30366       -1.94628        0.26759
H          3.53735       -0.61442       -0.61607
H          3.95668       -0.41521        1.10551
H          2.83598       -3.19628        1.97343
H          2.56208       -1.64020        2.79058
H          1.18136       -2.58768        2.18398
N         -2.62124        0.72284        1.28019
C         -3.26824        1.21225        0.03387
C         -2.10095        1.79513        2.16057
H         -3.28031        0.13648        1.79123
H         -2.51900        1.77055       -0.52739
H         -3.59201        0.34350       -0.54059
H         -4.11375        1.85189        0.29435
H         -1.38532        2.37944        1.58300
H         -2.92717        2.42424        2.49744
H         -1.59739        1.33768        3.01219
