32
2msa2ma_92.log	Energy: -953963.3525147
S         -0.96358       -1.38443        0.29658
O         -0.50564       -0.71671        1.53499
O         -0.62948       -0.58289       -0.92695
O         -2.41996       -1.70632        0.30372
H         -3.26328       -0.34447       -0.17736
C         -0.09046       -2.92491        0.16237
H          0.97323       -2.69009        0.08943
H         -0.31110       -3.51242        1.05372
H         -0.44174       -3.43154       -0.73642
S          2.77324        0.23555       -0.30759
O          3.95777        0.91306       -0.79262
O          2.70460       -1.22091       -0.31893
O          1.53972        0.81674       -1.12918
H          0.74158        0.20552       -1.05833
C          2.42472        0.78928        1.34962
H          3.23881        0.43549        1.98370
H          2.39237        1.87904        1.34230
H          1.47139        0.35379        1.65852
N         -3.56012        0.64196       -0.40392
H         -4.54470        0.75575       -0.17513
C         -3.27511        0.96234       -1.82166
H         -3.47754        2.01791       -2.00627
H         -2.22380        0.73629       -1.99958
H         -3.89445        0.34336       -2.47115
H         -2.96286        1.25143        0.26204
N         -1.83403        1.94772        1.29931
H         -2.21705        2.43949        2.10118
C         -0.84492        2.78703        0.60657
H         -0.06685        3.17148        1.27625
H         -0.35695        2.19506       -0.17008
H         -1.34319        3.63807        0.13414
H         -1.37085        1.10388        1.65177
