40
2msa1dma1eda_252.log	Energy: -1038018.8841335
S         -1.13865        1.94674        0.03464
O         -0.72620        2.42864        1.35281
O         -2.33723        1.07957        0.01676
O         -0.00656        1.24448       -0.70026
C         -1.51369        3.36634       -0.97831
H         -2.35836        3.88390       -0.52268
H         -0.63471        4.01089       -1.00117
H         -1.76502        3.01808       -1.98030
S          3.00983       -0.25520       -0.35814
O          3.32803       -0.14964       -1.77122
O          2.22509       -1.43205        0.05594
O          2.33539        1.04777        0.18952
H          1.36562        1.18027       -0.15782
C          4.50319       -0.22881        0.60200
H          5.07975       -1.10770        0.31208
H          5.04509        0.68548        0.36163
H          4.24028       -0.26499        1.65857
N         -1.17199       -1.62998        2.10925
C         -2.52834       -1.18218        2.43930
C         -0.13692       -0.75848        2.68188
H         -1.03666       -2.57162        2.46626
H         -2.70939       -0.22304        1.94782
H         -3.25425       -1.90783        2.06051
H         -2.67964       -1.06561        3.52223
H         -0.28357        0.26279        2.32049
H         -0.17064       -0.73889        3.78056
H          0.84790       -1.10213        2.35402
H         -0.80852       -2.46497       -2.45188
H         -1.08286       -3.48945       -1.01882
H         -3.20654       -2.95001       -2.10325
H         -3.15005       -2.22130       -0.49604
H         -3.85434       -0.82874       -2.58653
H         -2.86408       -0.11148       -1.49051
H          0.49881       -1.70040       -0.55689
H         -0.60194       -0.54888       -0.93092
C         -1.24104       -2.49651       -1.44975
C         -2.72671       -2.16325       -1.51268
N         -0.51629       -1.52444       -0.60225
N         -2.93817       -0.87790       -2.15929
H         -0.85766       -1.55572        0.41165
