29
2msa1a1ma_111.log	Energy: -929295.8613878
S          2.16760       -0.57078       -0.08702
O          1.79703        0.00324        1.22201
O          2.36402        0.36889       -1.17648
O          1.17560       -1.71514       -0.46628
H          0.21799       -1.39297       -0.71644
C          3.64079       -1.52798        0.15873
H          3.45044       -2.26584        0.93722
H          3.89415       -2.00615       -0.78695
H          4.42120       -0.82998        0.46241
S         -2.16020       -0.52825       -0.11343
O         -1.14367       -1.01073       -1.09747
O         -2.16720        0.95591        0.00231
O         -2.02834       -1.18252        1.21196
H         -1.09972        0.03129        2.35641
C         -3.72988       -1.00175       -0.79998
H         -3.83010       -0.52182       -1.77337
H         -3.74080       -2.08709       -0.89890
H         -4.50986       -0.66426       -0.11766
N         -0.58124        0.91680        2.22151
H         -0.53662        1.48981        3.05820
H         -1.10536        1.37399        1.44911
H          0.36950        0.66817        1.87050
N          0.13400        2.67672       -1.31702
H         -0.68150        2.09929       -1.13471
C          0.60900        3.30041       -0.09292
H          1.04466        2.60531        0.64771
H          1.38436        4.03710       -0.32538
H         -0.21569        3.84410        0.38221
H          0.85061        2.06759       -1.69789
