29
2msa1a1ma_70.log	Energy: -929299.4025869
S          1.79506       -0.68328       -0.11038
O          1.06340       -1.21075       -1.24469
O          1.80882        0.78601        0.06363
O          3.29642       -1.16088       -0.17948
H          3.95454       -0.36892       -0.06814
C          1.20781       -1.43468        1.38140
H          0.15923       -1.13180        1.48259
H          1.30934       -2.51413        1.26649
H          1.81425       -1.06987        2.21044
S         -2.63455       -0.33065        0.08988
O         -3.94911       -0.39508        0.72223
O         -1.49539       -0.05262        1.01046
O         -2.57233        0.63402       -1.07388
H         -1.39806        1.52389       -0.91088
C         -2.30850       -1.93062       -0.63673
H         -2.34810       -2.67544        0.15946
H         -3.08405       -2.12906       -1.37705
H         -1.32160       -1.90562       -1.10149
N          4.84934        0.92786        0.09497
H          4.13997        1.64451        0.23040
H          5.38089        1.15855       -0.73844
H          5.48217        0.94399        0.88818
N         -0.57723        2.20789       -0.66758
H          0.25252        1.63691       -0.44092
C         -0.97195        3.02440        0.50221
H         -0.16551        3.70454        0.77979
H         -1.87361        3.58520        0.25554
H         -1.18910        2.32994        1.31382
H         -0.36447        2.77969       -1.48106
