32
2msa2ma_247.log	Energy: -953948.5685109
S          2.57820       -0.87414       -0.05344
O          3.52801       -1.93386        0.22859
O          2.10422       -0.04043        1.05122
O          1.31395       -1.48703       -0.80364
H          0.48401       -1.40159       -0.25054
C          3.23374        0.17191       -1.32850
H          4.15753        0.59822       -0.93401
H          3.44528       -0.44992       -2.19881
H          2.49621        0.95413       -1.54628
S         -1.61688       -0.07779        0.90242
O         -1.53985        0.93542       -0.20019
O         -0.93824       -1.34605        0.54057
O         -3.04135       -0.30389        1.29439
H         -3.94576       -0.12237       -0.14572
C         -0.77937        0.60564        2.30784
H          0.27416        0.70622        2.04027
H         -1.23853        1.56567        2.54258
H         -0.89680       -0.09860        3.13178
N          0.92735        2.51572       -1.18364
H          0.58613        3.21056       -1.83885
C          1.49641        3.15953       -0.00091
H          0.79046        3.79200        0.55902
H          1.87061        2.38532        0.67455
H          2.34747        3.78238       -0.29454
H          0.13331        1.93704       -0.91590
N         -3.89987        0.08660       -1.17868
H         -4.72708        0.58116       -1.50307
C         -3.62530       -1.16101       -1.93631
H         -3.45052       -0.92207       -2.98465
H         -2.73481       -1.61899       -1.50375
H         -4.47323       -1.83748       -1.83634
H         -3.05873        0.70334       -1.18340
