32
2msa2ma_183.log	Energy: -953957.7947575
S          2.90494       -0.53046       -0.16061
O          3.56592        0.39792        0.74507
O          2.28692        0.07452       -1.35725
O          1.86740       -1.42833        0.58030
H          0.99802       -0.89619        0.81639
C          4.04861       -1.77113       -0.70569
H          4.44917       -2.27207        0.17526
H          3.51676       -2.46899       -1.35119
H          4.84016       -1.25632       -1.25069
S         -1.46865       -0.08723        0.53161
O         -0.08894        0.00215        1.14626
O         -1.67804       -1.32306       -0.22310
O         -1.73352        1.16864       -0.23858
H         -0.35916        1.86352       -0.70989
C         -2.60471       -0.06714        1.89924
H         -2.36397       -0.91516        2.54120
H         -2.48300        0.87411        2.43489
H         -3.61004       -0.17528        1.48035
N          0.61820        2.23661       -0.89573
H          1.20811        1.42045       -1.16266
C          1.16718        2.86049        0.33416
H          2.21806        3.10415        0.18226
H          0.59085        3.75454        0.57142
H          1.07158        2.12903        1.13574
H          0.59227        2.88701       -1.67741
N         -4.77759       -1.12672       -0.40233
H         -3.87487       -1.58097       -0.52047
C         -4.94019       -0.07558       -1.40489
H         -4.91894       -0.43052       -2.44662
H         -5.89099        0.44139       -1.24134
H         -4.13608        0.65552       -1.28347
H         -5.49606       -1.83503       -0.50179
