42
2msa2eda_362.log	Energy: -1072753.8985078
S         -2.68957        0.49269       -0.80836
O         -4.04122        0.27133       -1.28274
O         -1.99992       -0.60140       -0.11357
O         -2.70692        1.74945        0.14169
H         -1.84760        1.80926        0.73871
C         -1.65994        1.00163       -2.16504
H         -1.60945        0.16234       -2.86020
H         -2.13255        1.86224       -2.63880
H         -0.66556        1.25268       -1.78440
S          2.32251        1.05956       -0.56570
O          1.14489        1.94067       -0.76638
O          2.50349        0.03252       -1.60118
O          2.31487        0.50007        0.82991
H          1.12537       -0.38219        1.50542
C          3.76345        2.11257       -0.62350
H          3.80789        2.56349       -1.61520
H          3.66410        2.88042        0.14387
H          4.64406        1.49593       -0.44277
H         -0.51360       -4.36697       -0.64951
H         -1.43797       -2.96407       -0.05907
H         -0.11471       -2.40496       -2.08486
H          0.32542       -1.42876       -0.69990
H          1.93023       -3.54899       -1.86706
H          2.34811       -2.04455       -1.35384
H         -0.14628       -4.18549        1.68700
H          1.22035       -3.68285        0.90956
C         -0.43282       -3.37058       -0.19126
C          0.37056       -2.44500       -1.09991
N          0.24760       -3.44392        1.11640
N          1.77203       -2.85675       -1.14293
H          0.45555        1.44946        3.40004
H         -1.30205        1.59848        3.51166
H         -0.98011       -0.71324        3.60547
H         -1.42701       -0.44003        1.90686
H          1.22857       -1.03455        3.00007
H          0.38238       -1.91277        1.82333
H         -0.51347        2.99967        1.79917
H          0.20893        1.80981        0.96800
C         -0.48704        1.25434        2.86827
C         -0.66854       -0.24663        2.66787
N         -0.56954        2.00267        1.60851
N          0.57662       -0.92906        2.22390
