38
2msa2dma_99.log	Energy: -1003283.5082635
S          1.32958        1.89086       -0.08344
O          2.20505        0.74006        0.28302
O          0.96766        2.74757        1.04808
O          0.12429        1.40557       -0.84782
C          2.26072        2.85982       -1.25277
H          3.16353        3.20905       -0.75145
H          2.51011        2.22872       -2.10582
H          1.64090        3.70212       -1.56037
S         -2.72381       -0.22002       -0.24059
O         -4.09561       -0.32564        0.20301
O         -1.76612       -1.23578        0.22564
O         -2.19678        1.20944        0.14754
H         -1.24165        1.35997       -0.19697
C         -2.65363       -0.21573       -2.01917
H         -2.95059       -1.20818       -2.35947
H         -3.34726        0.54307       -2.38095
H         -1.62958        0.01096       -2.32014
N          0.50903       -0.89311        1.76767
C          0.00093        0.03031        2.80997
C          0.94046       -2.21196        2.27727
H         -0.24674       -1.03645        1.07202
H          0.77476        0.17142        3.56557
H         -0.22912        0.99202        2.35106
H         -0.89498       -0.40191        3.25714
H          1.72985       -2.06767        3.01690
H          0.08556       -2.71010        2.73707
H          1.31494       -2.77821        1.42399
H          1.28142       -0.42627        1.24451
N          2.01295       -2.05871       -0.79014
C          0.98523       -1.83601       -1.79677
C          2.91417       -3.14672       -1.12994
H          2.52860       -1.19285       -0.65828
H          0.26140       -2.65850       -1.78064
H          0.45872       -0.90716       -1.56506
H          1.39383       -1.75918       -2.82005
H          2.35988       -4.09225       -1.14843
H          3.39744       -3.02573       -2.11504
H          3.69772       -3.23154       -0.37115
