32
2msa1a1dma_85.log	Energy: -953959.9953391
S          0.82803        1.53148       -0.16593
O          0.36870        0.64413       -1.27052
O          2.24496        1.94678       -0.34069
O          0.60367        0.90585        1.17432
H          2.26505        0.28283        1.81562
C         -0.17931        2.99294       -0.23000
H         -0.01888        3.46352       -1.20021
H         -1.21763        2.67475       -0.11829
H          0.12822        3.65515        0.57932
S         -2.77056       -0.44416       -0.01092
O         -3.94422       -1.25703       -0.25542
O         -2.83357        1.00354       -0.17320
O         -1.60743       -1.02101       -0.93088
H         -0.89122       -0.33167       -1.08281
C         -2.16315       -0.78507        1.62882
H         -2.91629       -0.42477        2.33094
H         -2.03517       -1.86336        1.72720
H         -1.21954       -0.24922        1.75410
N          3.20179        0.09599        1.41684
H          3.93888        0.13163        2.11358
H          3.28038        0.85680        0.71313
H          3.14422       -0.86037        0.89433
N          2.75175       -2.16953       -0.02934
C          2.84336       -1.72839       -1.43053
C          1.37772       -2.53649        0.34497
H          3.35545       -2.97643        0.10117
H          2.21453       -0.84485       -1.56887
H          3.87915       -1.46740       -1.66257
H          2.50527       -2.50391       -2.12988
H          0.74754       -1.64475        0.30883
H          0.94708       -3.28518       -0.33168
H          1.37011       -2.93114        1.36469
