42
2msa2eda_188.log	Energy: -1072760.3507170
S          1.48286        1.88260       -0.76791
O          1.62461        3.33379       -0.84344
O          0.52890        1.42181        0.30562
O          2.75734        1.12136       -0.57637
H          2.38797        0.05734        0.68598
C          0.78551        1.30993       -2.30545
H          1.48421        1.57034       -3.10129
H          0.62535        0.23272       -2.24016
H         -0.17778        1.80053       -2.44678
S         -2.22766       -0.83657       -1.07498
O         -0.97706       -1.50527       -1.47874
O         -2.35092        0.57659       -1.48657
O         -2.49462       -0.97741        0.40495
H         -2.33997        0.66865        0.96331
C         -3.55642       -1.72645       -1.87282
H         -3.41412       -1.63769       -2.95021
H         -3.50702       -2.77073       -1.56356
H         -4.50263       -1.27632       -1.57235
H         -2.47389       -0.23512        3.29689
H         -1.11185        0.24440        4.31724
H         -2.12997        2.17245        3.24959
H         -0.44044        1.98529        2.72587
H         -2.42067        2.34494        0.99111
H         -0.96185        1.57195        0.65487
H         -0.47339       -1.63125        3.13253
H         -0.99346       -1.05955        1.70514
C         -1.44130        0.14344        3.27847
C         -1.43920        1.54564        2.68078
N         -0.53777       -0.77946        2.58140
N         -1.84790        1.54592        1.24846
H          1.25847       -2.67329        0.88542
H          0.87513       -1.45814       -0.34360
H          2.60053       -3.04416       -1.20657
H          3.26581       -1.41252       -1.04469
H          3.83774       -3.68698        0.69820
H          4.86609       -2.58843        0.06037
H          1.25387       -0.50026        1.83787
H          2.85458       -1.11392        1.80767
C          1.66838       -1.84192        0.30264
C          2.89664       -2.27546       -0.48254
N          2.06902       -0.77193        1.25013
N          3.94044       -2.70807        0.45334
