41
2msa1dma1tma_117.log	Energy: -1027936.8013925
S         -3.31997        0.10150        0.10764
O         -3.03740        0.65277       -1.21567
O         -2.73910        0.81382        1.24344
O         -2.97415       -1.42725        0.16306
H         -2.02344       -1.64363       -0.16299
C         -5.07741       -0.00958        0.34220
H         -5.46080        1.01111        0.35432
H         -5.50148       -0.57389       -0.48755
H         -5.26553       -0.50382        1.29485
S          0.63158       -1.57586       -0.20718
O         -0.68427       -2.06741       -0.70240
O          0.64032       -1.20281        1.21358
O          1.16074       -0.46409       -1.07604
H          0.79147        0.97912       -0.53855
C          1.76966       -2.92265       -0.44807
H          1.44360       -3.74917        0.18374
H          1.74267       -3.20584       -1.50035
H          2.76473       -2.57308       -0.16327
N          4.04459       -0.33641        0.12366
C          5.13583        0.40848       -0.46766
C          3.85180       -0.06670        1.53520
H          3.18116       -0.20498       -0.39622
H          6.08430        0.09750       -0.01547
H          5.19179        0.20120       -1.53967
H          5.05381        1.50509       -0.32921
H          4.70321       -0.45430        2.10600
H          3.77163        1.01369        1.77498
H          2.94268       -0.56399        1.88265
N          0.68493        1.99357       -0.23450
C          0.30728        1.99201        1.20360
H         -0.67296        1.52576        1.31243
H          1.04480        1.40591        1.75184
H          0.28199        3.02471        1.56097
C          2.00650        2.62186       -0.45642
H          2.73917        2.14331        0.19379
H          2.29657        2.47724       -1.49793
H          1.94378        3.68828       -0.22766
C         -0.36551        2.59830       -1.09099
H         -0.04059        2.54188       -2.13071
H         -1.29335        2.03616       -0.97559
H         -0.50954        3.64077       -0.79681
