40
2msa1dma1eda_506.log	Energy: -1038010.1830683
S         -3.15773        0.39281        0.48931
O         -4.20528        1.03444        1.25503
O         -2.08555       -0.15634        1.48848
O         -2.47824        1.20452       -0.54420
H         -1.00971        1.92130       -0.65766
C         -3.78558       -1.05316       -0.32316
H         -4.25516       -1.67912        0.43579
H         -4.51939       -0.71704       -1.05639
H         -2.94270       -1.56251       -0.79796
S          0.36991       -1.69276       -0.60653
O          1.31518       -1.15157       -1.60045
O         -0.90389       -2.19453       -1.13553
O          0.14094       -0.66231        0.49353
H         -1.18392       -0.41756        1.03532
C          1.19845       -3.04327        0.21179
H          2.11407       -2.65412        0.66315
H          0.52569       -3.44436        0.97058
H          1.42042       -3.79839       -0.54291
N         -0.13680        2.47678       -0.83591
C          0.51527        1.95653       -2.06860
C          0.71940        2.43533        0.37967
H         -0.44975        3.43331       -0.99767
H          0.75340        0.90196       -1.91999
H         -0.18553        2.06879       -2.89629
H          1.43232        2.51790       -2.24818
H          0.91297        1.38744        0.59786
H          1.66095        2.94407        0.17720
H          0.17432        2.90172        1.20121
H          3.41759        1.58802        1.83852
H          4.69537        0.48319        2.36764
H          5.23499        1.40690        0.20597
H          4.98874       -0.34683        0.08630
H          3.91765        1.02965       -1.66975
H          2.84624        0.09826       -0.89731
H          2.75830       -0.66261        2.81262
H          2.05373       -0.34440        1.38158
C          3.87829        0.60372        1.64796
C          4.47809        0.61502        0.24771
N          2.95213       -0.51199        1.82900
N          3.46405        0.90161       -0.77041
