35
2msa1ma1dma_325.log	Energy: -978611.5339014
S          2.86949       -0.74387       -0.31907
O          3.84405       -1.81770       -0.26083
O          2.47337       -0.08957        0.92791
O          1.55847       -1.25325       -1.06486
H          0.78540       -1.33662       -0.43139
C          3.42355        0.48786       -1.47017
H          4.36812        0.87208       -1.08182
H          3.57825        0.00326       -2.43447
H          2.66180        1.27540       -1.51846
S         -1.23247       -0.35725        1.09679
O         -1.27415        0.82385        0.17463
O         -0.54121       -1.51665        0.47660
O         -2.60936       -0.71154        1.54827
H         -3.62638       -0.41035        0.14468
C         -0.29974        0.12173        2.52729
H          0.72423        0.30839        2.19790
H         -0.76266        1.01176        2.95322
H         -0.32905       -0.70970        3.23192
N          1.01830        2.65317       -0.80931
H          0.57026        3.40223       -1.32607
C          1.61834        3.16796        0.42105
H          0.90295        3.63510        1.11528
H          2.10955        2.34143        0.94178
H          2.38473        3.90956        0.17450
H          0.29505        1.97442       -0.57787
N         -3.64811       -0.02332       -0.82932
C         -4.89104        0.71913       -1.11041
C         -3.33347       -1.11669       -1.78026
H         -2.81897        0.60548       -0.76236
H         -5.73503        0.02850       -1.08870
H         -5.02255        1.48646       -0.34752
H         -4.82059        1.18379       -2.09487
H         -4.14646       -1.84348       -1.77139
H         -3.21186       -0.69842       -2.78019
H         -2.40571       -1.59118       -1.45603
