35
2msa1ma1dma_340.log	Energy: -978608.2915161
S         -2.98355       -0.16791       -0.19051
O         -4.29084       -0.79186       -0.13231
O         -2.01631       -0.61459       -1.19074
O         -2.30968       -0.29097        1.24811
H         -1.36304       -0.60529        1.17767
C         -3.19177        1.59072       -0.33661
H         -3.66388        1.77196       -1.30336
H         -3.84545        1.91702        0.47272
H         -2.20443        2.06189       -0.27793
S          1.14563       -1.43641        0.16733
O          0.18870       -1.08656        1.24125
O          2.44523       -1.92912        0.69977
O          1.38045       -0.28689       -0.77684
H          2.75530        0.43328       -0.28826
C          0.41088       -2.73053       -0.79883
H          0.22399       -3.57279       -0.13209
H         -0.52137       -2.33258       -1.20506
H          1.10813       -3.00604       -1.58975
N          3.68640        0.43405        0.22873
H          3.68259        1.16426        0.93829
C          4.83747        0.52700       -0.69325
H          5.76967        0.41206       -0.14076
H          4.74411       -0.27053       -1.42942
H          4.81735        1.49287       -1.19736
H          3.60590       -0.49923        0.68559
N          0.05705        2.28361       -0.01954
C          0.34993        2.34520        1.39792
C          0.92613        3.12820       -0.81063
H          0.15802        1.32350       -0.34219
H          0.14566        3.35164        1.78000
H         -0.27501        1.63334        1.94024
H          1.40896        2.11212        1.63714
H          0.74490        4.18335       -0.57730
H          2.00666        2.93758       -0.63302
H          0.72819        2.97347       -1.87403
