29
2msa1a1ma_67.log	Energy: -929300.7610508
S         -2.18392       -0.76925       -0.12909
O         -1.26018       -0.65358        1.03882
O         -1.70046       -1.70720       -1.15070
O         -2.54023        0.58348       -0.66500
C         -3.71831       -1.42328        0.51128
H         -4.09334       -0.74106        1.27440
H         -4.42434       -1.50093       -0.31587
H         -3.51645       -2.40641        0.93725
S          2.38857       -0.45504       -0.09172
O          1.84721        0.50331       -1.04321
O          2.66918       -0.02328        1.27199
O          3.79580       -0.97057       -0.71498
H          4.48161       -0.84649       -0.04321
C          1.41825       -1.93015       -0.09955
H          0.46468       -1.67289        0.37648
H          1.24685       -2.22336       -1.13495
H          1.96069       -2.69098        0.46131
N          0.11803        1.65451        2.23272
H         -0.11896        2.14395        3.08837
H          1.07599        1.31969        2.30965
H         -0.47699        0.82573        2.14738
N         -0.41410        2.20907       -0.45679
H          0.36884        1.70462       -0.88674
H         -1.27614        1.61095       -0.59193
C         -0.58165        3.56445       -1.00713
H         -1.42751        4.04497       -0.51520
H          0.32277        4.14853       -0.83287
H         -0.77770        3.50218       -2.07772
H         -0.21241        2.20169        0.58216
