37
2msa1ma1eda_420.log	Energy: -1013352.9945864
S         -2.75783       -0.84847       -0.02024
O         -4.11591       -0.93514        0.50959
O         -1.71391       -0.45730        0.97477
O         -2.63680        0.02461       -1.24127
H         -1.33123        0.85473       -1.12859
C         -2.28930       -2.47975       -0.58551
H         -3.01253       -2.79583       -1.33772
H         -1.28852       -2.41699       -1.01675
H         -2.31250       -3.15816        0.26873
S          1.70094       -0.94827       -0.01326
O          1.00245       -1.09914       -1.28394
O          1.74394        0.41840        0.54173
O          3.16808       -1.47156       -0.13211
H          3.88214       -0.71051        0.20346
C          0.97461       -2.03347        1.18430
H         -0.05202       -1.68169        1.33320
H          1.00155       -3.04552        0.77938
H          1.55555       -1.96439        2.10399
N          4.70555        0.39419        0.59128
H          4.07685        0.93383        1.18371
C          5.06808        1.16827       -0.60675
H          5.59025        2.09918       -0.36715
H          5.70151        0.55477       -1.24972
H          4.15186        1.40359       -1.15123
H          5.52604        0.14975        1.13751
H         -0.19785        3.59572       -0.68774
H         -1.53865        3.17891       -1.79644
H         -2.30135        4.03152        0.45049
H         -2.92431        2.42323        0.05587
H         -1.71662        2.95476        2.35013
H         -1.54234        1.48722        1.63513
H          0.14867        1.42065       -1.73969
H         -0.02392        1.26945       -0.11614
C         -1.04216        2.92285       -0.85733
C         -2.01698        2.98337        0.31781
N         -0.51643        1.54134       -0.97891
N         -1.36494        2.48692        1.52480
