35
2msa1ma1dma_264.log	Energy: -978616.5369591
S         -1.07046        1.34231       -0.43281
O         -2.35561        1.85664        0.02281
O         -0.29981        0.64368        0.67905
O         -0.16624        2.36686       -1.04416
H          1.26394        2.36179       -0.38101
C         -1.35299        0.10089       -1.67342
H         -1.97509       -0.68378       -1.22441
H         -1.87336        0.58649       -2.50012
H         -0.38708       -0.28856       -2.00117
S          2.16043       -1.33077       -0.19363
O          2.98486       -0.30405        0.47423
O          1.92578       -1.12565       -1.61639
O          0.82566       -1.52902        0.58325
H          0.27377       -0.61401        0.61256
C          2.92463       -2.90911        0.07236
H          3.88499       -2.88811       -0.44326
H          3.05953       -3.05393        1.14359
H          2.27436       -3.67392       -0.35149
N          2.16602        2.35828        0.19323
H          2.51831        1.38120        0.22571
C          1.86800        2.83746        1.56417
H          2.77569        2.82144        2.16760
H          1.46232        3.84735        1.50787
H          1.11761        2.16674        1.98155
H          2.85758        2.93949       -0.27465
N         -3.41617       -1.76305        0.16344
C         -4.53983       -0.84235        0.04153
C         -2.77701       -1.69383        1.47098
H         -3.72811       -2.71155       -0.01367
H         -4.16693        0.18378        0.11807
H         -5.00883       -0.96292       -0.93945
H         -5.31089       -0.98778        0.81827
H         -2.35007       -0.69617        1.61009
H         -3.47166       -1.88751        2.30707
H         -1.95850       -2.41752        1.51929
