43
2msa1eda1tma_189.log	Energy: -1062672.1875411
S          0.92437       -0.48576       -0.62808
O          1.57828        0.68408       -1.22903
O         -0.34261       -0.85214       -1.35484
O          0.65690       -0.33099        0.83447
H         -0.33349        0.90661        1.21228
C          2.01659       -1.87809       -0.78133
H          2.17302       -2.05636       -1.84590
H          2.95878       -1.61752       -0.28474
H          1.53764       -2.73804       -0.31220
S         -3.36514       -0.90873        0.24292
O         -3.90100       -0.12529       -0.86816
O         -2.87435       -0.15036        1.39726
O         -2.28933       -1.92460       -0.25262
H         -1.45375       -1.46450       -0.69581
C         -4.60422       -2.04827        0.80776
H         -5.42906       -1.45089        1.19700
H         -4.92846       -2.65124       -0.03986
H         -4.17021       -2.66833        1.59142
H         -0.60096        3.80068        0.66626
H          0.56850        2.61276        0.00159
H         -1.15407        3.22211       -1.70366
H         -1.25365        1.52180       -1.27436
H         -3.19833        3.56747       -0.64349
H         -3.39385        1.92863       -0.78702
H         -0.58745        2.16824        2.29062
H         -1.85315        1.65248        1.33075
C         -0.47289        2.78628        0.28030
C         -1.41974        2.53438       -0.89270
N         -0.83408        1.82843        1.36478
N         -2.79488        2.66543       -0.42716
N          4.74713       -0.35590        0.36532
C          4.15547        0.59584        1.29083
H          3.24041        1.00495        0.85529
H          3.89401        0.09032        2.22527
H          4.84282        1.43246        1.52575
C          5.95009       -0.95171        0.91502
H          5.72092       -1.44834        1.86282
H          6.34352       -1.70157        0.22177
H          6.74539       -0.20335        1.10134
C          4.99900        0.25932       -0.92808
H          5.38620       -0.49166       -1.62443
H          4.06334        0.65600       -1.33181
H          5.73816        1.08131       -0.86428
