30
2msa1eda_06.log	Energy: -953207.8456597
S          2.56752        0.15855       -0.06922
O          2.17312        0.97279        1.09402
O          2.31695        0.74948       -1.37593
O          1.95449       -1.27090        0.04287
C          4.29019       -0.22749        0.11128
H          4.43442       -0.72302        1.07080
H          4.58354       -0.87317       -0.71583
H          4.83132        0.71838        0.07751
S         -1.62401       -1.54563       -0.02520
O         -2.77326       -1.05070       -0.78442
O         -1.44023       -0.89100        1.30245
O         -0.34920       -1.47700       -0.82719
H          0.95790       -1.34623       -0.30308
C         -1.88675       -3.27479        0.31374
H         -2.80142       -3.36695        0.89956
H         -1.98854       -3.78879       -0.64217
H         -1.02947       -3.65371        0.87019
H         -0.12762        2.75185       -0.77778
H         -0.50692        1.04596       -1.07635
H         -2.43731        2.53841       -1.70593
H         -2.85414        1.38904       -0.43865
H         -2.39327        4.26064       -0.08157
H         -3.58488        3.32272        0.52914
H          0.47621        1.57462        1.15176
H         -1.00534        2.36686        1.48970
C         -0.78202        1.92505       -0.49038
C         -2.25497        2.27801       -0.65656
N         -0.53630        1.63285        0.94820
N         -2.60048        3.34091        0.29264
H         -0.94680        0.69421        1.19481
