37
2msa1ma1eda_511.log	Energy: -1013351.0394865
S         -1.76607       -1.23774        0.65837
O         -2.93152       -0.34147        0.84733
O         -0.82859       -1.25553        1.80271
O         -1.05003       -0.96004       -0.62723
C         -2.42703       -2.89054        0.50044
H         -2.94966       -3.13146        1.42652
H         -3.11569       -2.90764       -0.34455
H         -1.59953       -3.58198        0.33812
S          2.71145       -0.45707       -0.50380
O          1.83903        0.33333       -1.36160
O          3.42489        0.18967        0.58181
O          3.82462       -1.13022       -1.47888
H          3.64044       -0.83914       -2.38336
C          1.88289       -1.89217        0.11511
H          1.14075       -1.56182        0.85047
H          1.37464       -2.37534       -0.71861
H          2.63791       -2.53456        0.56892
N         -3.14050        1.74660       -1.29421
H         -3.35118        1.12728       -0.50608
C         -3.13702        0.95190       -2.52916
H         -4.10586        0.48613       -2.74948
H         -2.85528        1.58441       -3.37614
H         -2.39272        0.15835       -2.42169
H         -3.85626        2.46461       -1.32835
H         -0.98930        3.16543        1.17814
H         -1.43813        1.47982        1.54568
H          0.58530        2.18250        2.85072
H          0.94096        0.86525        1.74945
H          1.86527        3.60427        1.52482
H          2.57761        2.20470        1.02544
H         -1.43772        2.03157       -0.83103
H          0.29800        2.24709       -0.69134
C         -0.66789        2.12144        1.11406
C          0.68344        1.92776        1.78852
N         -0.54191        1.78687       -0.32659
N          1.69888        2.70813        1.08406
H         -0.44454        0.76001       -0.47048
