37
2msa1ma1eda_38.log	Energy: -1013377.5270126
S         -3.06358       -0.23716       -0.14120
O         -3.00070        1.07989       -0.80421
O         -2.31793       -0.24125        1.16670
O         -2.65547       -1.37413       -1.00089
H         -0.79873       -1.95940       -1.00133
C         -4.76871       -0.52824        0.29371
H         -5.09693        0.27580        0.95251
H         -5.34945       -0.53206       -0.62895
H         -4.83629       -1.49343        0.79547
S          3.09359       -0.20602       -0.12949
O          3.12000        0.96420       -1.01948
O          2.75607       -1.48426       -0.80802
O          2.23131        0.00988        1.08619
H          0.80227        0.83755        1.32796
C          4.74405       -0.41849        0.51677
H          5.02804        0.49874        1.03296
H          4.74126       -1.26509        1.20328
H          5.41022       -0.60707       -0.32545
N          0.05380       -1.71140       -0.48197
H          0.94534       -1.92781       -0.95516
C          0.04467       -2.32432        0.86650
H          0.90954       -1.94489        1.40973
H         -0.88554       -2.04715        1.36086
H          0.11305       -3.40693        0.75917
H          0.03756       -0.66442       -0.46701
H         -1.46938        2.57852        0.61196
H         -0.00293        3.37105        1.25307
H          0.01077        3.22487       -1.22963
H          1.38717        2.38569       -0.49417
H         -0.97953        1.10215       -1.62130
H          0.62696        0.91822       -2.01372
H         -0.13755        1.49939        2.55250
H         -0.90930        0.59361        1.38787
C         -0.38614        2.49391        0.72755
C          0.30216        2.35747       -0.62224
N         -0.12673        1.27947        1.55945
N         -0.02837        1.08004       -1.25399
