35
2msa1a1tma_78.log	Energy: -978616.0046115
S          0.66309        1.80319        0.19137
O          1.96134        2.29244       -0.25302
O         -0.03210        0.94063       -0.84934
O         -0.30704        2.87350        0.59916
H         -1.62348        2.68264       -0.17209
C          0.90384        0.75682        1.60722
H          1.53418       -0.07603        1.27396
H          1.40285        1.35488        2.37063
H         -0.06802        0.40542        1.95818
S         -2.30454       -1.17247        0.16650
O         -3.16637       -0.21717       -0.55839
O         -2.11082       -0.91016        1.58434
O         -0.94311       -1.32775       -0.58031
H         -0.47034       -0.38399       -0.68102
C         -2.98115       -2.79607       -0.06070
H         -3.94737       -2.80970        0.44412
H         -3.09529       -2.97854       -1.12853
H         -2.29791       -3.51341        0.39333
N         -2.45239        2.45761       -0.83058
H         -2.09098        2.50657       -1.78102
H         -3.22070        3.11141       -0.71007
H         -2.76692        1.47874       -0.66351
N          2.92560       -1.22585       -0.09642
C          2.62141       -1.03013       -1.50481
H          1.69681       -1.55742       -1.75821
H          2.47339        0.03388       -1.70316
H          3.42923       -1.40723       -2.16186
C          4.09790       -0.46092        0.29624
H          3.92220        0.59985        0.09690
H          4.27792       -0.58698        1.36907
H          5.00970       -0.77951       -0.24470
C          3.06921       -2.63260        0.22449
H          3.24156       -2.75509        1.29858
H          2.14984       -3.16550       -0.03679
H          3.91177       -3.10821       -0.31501
