34
2msa1a1eda_162.log	Energy: -988702.3938746
S         -1.07010       -1.89953        0.08706
O         -1.53356       -1.15473       -1.12388
O         -1.78223       -1.51085        1.31098
O          0.42223       -1.82532        0.21394
C         -1.41466       -3.61696       -0.23462
H         -2.49204       -3.72507       -0.36088
H         -0.88771       -3.91049       -1.14226
H         -1.06793       -4.19469        0.62226
S          2.89323        0.46260        0.00621
O          3.93702        1.25399        0.61919
O          2.11297        1.06801       -1.08282
O          1.91451       -0.00107        1.15489
H          1.24649       -0.70227        0.82768
C          3.55544       -1.06869       -0.61165
H          4.21769       -0.82104       -1.44169
H          4.10727       -1.54734        0.19720
H          2.72147       -1.68995       -0.94196
N         -3.99407        0.43188       -0.00085
H         -4.98384        0.31811       -0.19519
H         -3.80566       -0.02617        0.88814
H         -3.47931       -0.12170       -0.68466
H         -1.55000        0.96945        0.92728
H          0.04168        1.72730        1.07560
H         -1.97728        3.23607        1.63254
H         -0.86099        3.91532        0.43804
H         -3.32767        2.46529       -0.26304
H         -3.02761        4.08986       -0.50444
H          0.35981        1.50882       -1.13668
H         -0.93959        0.44968       -1.11501
C         -0.90217        1.75214        0.53051
C         -1.58958        3.11541        0.61228
N         -0.64203        1.43023       -0.90535
N         -2.60539        3.17281       -0.43379
H         -1.23613        2.07365       -1.45292
