35
2msa1ma1dma_117.log	Energy: -978626.1548093
S         -0.77734        1.59711       -0.17372
O          0.50269        2.03990       -0.79358
O         -0.58205        0.94581        1.14197
O         -1.59982        0.75861       -1.08808
C         -1.69760        3.09822        0.09824
H         -1.85563        3.57927       -0.86699
H         -2.64899        2.83335        0.56059
H         -1.11262        3.73940        0.75755
S          2.91534       -0.36958        0.03305
O          4.27952       -0.83484       -0.07887
O          1.84440       -1.36829       -0.12100
O          2.71757        0.78059       -1.01935
H          1.80354        1.22214       -0.95670
C          2.66595        0.43564        1.59944
H          2.83491       -0.31693        2.37091
H          3.39627        1.24059        1.68153
H          1.63905        0.80965        1.63758
N         -3.87616       -0.99587       -0.39255
H         -3.50038       -0.31895       -1.05206
C         -4.13401       -0.32506        0.88286
H         -4.87693        0.48345        0.82803
H         -4.48454       -1.05500        1.61948
H         -3.19768        0.10063        1.25669
H         -4.73836       -1.36092       -0.78258
N         -0.86157       -1.79706       -0.16685
C         -1.26229       -2.23560        1.18545
C         -1.06469       -2.81123       -1.22048
H         -1.37974       -0.93732       -0.42825
H         -0.64919       -3.09022        1.47623
H         -1.09980       -1.40082        1.86712
H         -2.31832       -2.50439        1.15833
H         -0.48944       -3.70502       -0.97482
H         -2.13036       -3.03559       -1.27645
H         -0.71663       -2.39894       -2.16756
H          0.13841       -1.52043       -0.14401
