29
2msa1a1ma_45.log	Energy: -929305.2819365
S          2.15243       -0.88799       -0.00908
O          3.25431       -1.75815        0.37156
O          2.45992        0.54696       -0.15764
O          0.95539       -1.03395        0.95259
H          0.61939        0.50684        1.75139
C          1.50857       -1.45775       -1.57598
H          2.30357       -1.33939       -2.31301
H          1.24108       -2.51023       -1.47529
H          0.63674       -0.85712       -1.84273
S         -2.13606       -0.45792       -0.04967
O         -1.55660        0.26837       -1.18150
O         -2.37592        0.32837        1.16639
O         -1.29750       -1.73080        0.27450
H         -0.29408       -1.47885        0.55340
C         -3.66582       -1.20313       -0.55115
H         -4.34952       -0.39029       -0.79727
H         -3.47315       -1.82609       -1.42396
H         -4.04810       -1.79400        0.28056
N          0.15610        1.41622        1.96191
H          0.57453        1.85775        2.77426
H         -0.83912        1.21619        2.10293
H          0.25010        2.02462        1.04217
N          0.37588        2.56791       -0.45069
H          1.23925        2.07928       -0.69594
C          0.43419        3.99135       -0.78534
H          0.58359        4.17708       -1.85546
H         -0.49434        4.47958       -0.47804
H          1.25887        4.45875       -0.24125
H         -0.37314        2.09226       -0.95256
