42
2msa2eda_246.log	Energy: -1072755.4010604
S         -2.39820       -0.56651        0.91880
O         -3.14757        0.15189       -0.12700
O         -1.39723        0.28205        1.62081
O         -1.78339       -1.84218        0.42521
C         -3.57862       -1.06989        2.15659
H         -4.31025       -1.72200        1.67935
H         -3.04306       -1.59997        2.94428
H         -4.05880       -0.17426        2.55112
S          1.39789       -1.92867       -0.73122
O          2.81450       -2.21147       -0.55908
O          1.01818       -0.58215       -1.15146
O          0.68891       -2.29722        0.61918
H         -0.31388       -2.06437        0.59536
C          0.69581       -3.08100       -1.89049
H          1.14844       -2.88515       -2.86287
H          0.92538       -4.09042       -1.54978
H         -0.38138       -2.90916       -1.91958
H         -2.14776        2.47370        0.01210
H         -0.96019        3.77812       -0.22141
H         -2.57155        3.43333       -2.15656
H         -0.86846        3.33004       -2.63153
H         -2.48776        0.94197       -2.02861
H         -1.95306        1.41451       -3.52960
H         -0.43604        1.23467        0.49049
H         -0.17757        1.14434       -1.13009
C         -1.28578        2.79708       -0.57480
C         -1.65725        2.82962       -2.05714
N         -0.20277        1.81037       -0.34272
N         -1.77210        1.46098       -2.53558
H          0.75215        2.24286       -0.21707
H          3.46349        2.81287        2.09918
H          1.71599        2.56565        2.26355
H          2.94007        0.43376        2.55878
H          1.88926        0.37076        1.14907
H          4.78924        0.55364        1.10967
H          3.78174       -0.37045        0.20016
H          2.49635        3.86871        0.23538
H          3.05075        2.42360       -0.32320
C          2.58403        2.34670        1.63115
C          2.79602        0.83539        1.54661
N          2.34886        2.86561        0.27459
N          3.89593        0.54323        0.63052
