37
2msa1ma1eda_32.log	Energy: -1013375.4184114
S         -2.92710       -0.11979       -0.18467
O         -2.91368       -1.45530       -0.83457
O         -2.72311        1.00949       -1.12854
O         -1.97200       -0.05689        0.96229
C         -4.56041        0.09472        0.49730
H         -5.27752        0.05047       -0.32260
H         -4.74148       -0.70847        1.21167
H         -4.59861        1.06606        0.99036
S          2.62072       -0.63499       -0.06901
O          2.46786       -1.57421        1.05345
O          2.89042        0.76966        0.29309
O          1.43652       -0.73286       -1.01289
C          4.01873       -1.18304       -1.03504
H          4.90267       -1.12967       -0.39872
H          3.83804       -2.20937       -1.35493
H          4.12348       -0.52229       -1.89554
N         -0.48223       -2.28597        0.23852
H          0.26869       -1.82327       -0.32108
H         -0.75391       -1.58999        0.94881
C         -0.03112       -3.56770        0.81527
H         -0.80560       -3.96010        1.47435
H          0.15599       -4.27541        0.00758
H          0.89169       -3.38403        1.36465
H         -1.33678       -2.34733       -0.34298
H          1.75596        2.41717       -1.09160
H          0.33276        3.29151       -1.71638
H          1.57035        4.43386        0.21441
H         -0.15784        4.18342        0.51234
H          1.90686        2.32702        1.50348
H          0.95961        3.34152        2.42019
H          0.40142        0.70498       -0.88248
H         -0.12757        1.48255        0.47520
C          0.75135        2.77043       -0.85433
C          0.80064        3.66766        0.38522
N         -0.07028        1.57060       -0.55373
N          1.02063        2.82640        1.55219
H         -1.04628        1.57898       -0.90992
