31
2msa1tma_17.log	Energy: -943122.7964619
S          1.97510       -1.26349       -0.10182
O          2.87416       -0.36498       -0.85714
O          1.17328       -2.19036       -0.90845
O          1.11779       -0.45954        0.85797
C          3.01389       -2.26151        0.95614
H          3.61357       -1.60148        1.58319
H          2.37346       -2.89780        1.56734
H          3.65414       -2.86809        0.31493
N          1.10097        2.06235        0.05873
C          0.07656        2.82280        0.81151
H         -0.90698        2.43044        0.55356
H          0.25909        2.69294        1.87911
H          0.14722        3.88089        0.54718
C          2.47754        2.51757        0.36656
H          2.63225        2.45887        1.44475
H          3.17114        1.84555       -0.14006
H          2.60191        3.54821        0.02501
C          0.84100        2.06831       -1.40447
H          1.59086        1.43351       -1.87794
H         -0.15529        1.66132       -1.57532
H          0.90512        3.09522       -1.77332
H          1.05181        1.04185        0.37740
S         -2.77900       -0.20641        0.08497
O         -3.34614        0.03272        1.40361
O         -2.09450        0.87325       -0.60700
O         -4.00611       -0.67296       -0.87650
H         -4.81393       -0.67197       -0.34371
C         -1.75610       -1.64553        0.08824
H         -0.86361       -1.39034        0.66696
H         -2.31793       -2.46458        0.53624
H         -1.45245       -1.86754       -0.93461
