42
2msa2eda_173.log	Energy: -1072760.2737530
S         -1.75296        1.64985       -0.76257
O         -2.70174        2.75665       -0.78485
O         -2.25972        0.34943       -1.27147
O         -1.13338        1.43240        0.61065
H         -1.38150       -0.19864        0.93268
C         -0.37473        2.08536       -1.81593
H         -0.76416        2.22343       -2.82515
H          0.05219        3.02259       -1.45436
H          0.36526        1.28063       -1.80266
S          1.75350       -1.64963       -0.76278
O          2.70234       -2.75640       -0.78472
O          2.26063       -0.34897       -1.27064
O          1.13277       -1.43276        0.61001
H          1.38074        0.19831        0.93255
C          0.37612       -2.08473       -1.81742
H          0.76631       -2.22235       -2.82641
H         -0.05105       -3.02212       -1.45657
H         -0.36387       -1.28001       -1.80430
H         -2.65766       -2.62063        2.12441
H         -2.25247       -1.10906        2.98315
H         -4.68645       -1.25205        2.25412
H         -3.84250        0.15818        1.60955
H         -5.15623       -1.69178        0.09280
H         -3.96690       -0.70495       -0.49135
H         -0.62389       -1.66884        1.11147
H         -1.93363       -1.49445        0.08846
C         -2.57762       -1.53538        2.03146
C         -3.90520       -0.93667        1.55712
N         -1.55481       -1.23381        1.00672
N         -4.19247       -1.41024        0.20734
H          2.65687        2.61765        2.12931
H          2.25273        1.10365        2.98427
H          4.68644        1.24944        2.25396
H          3.84245       -0.15931        1.60620
H          5.15330        1.69768        0.09373
H          3.96711        0.70785       -0.49208
H          0.62332        1.66826        1.11412
H          1.93318        1.49583        0.09078
C          2.57721        1.53261        2.03355
C          3.90474        0.93567        1.55674
N          1.55412        1.23331        1.00842
N          4.19052        1.41262        0.20779
