42
2msa2eda_239.log	Energy: -1072757.2844736
S         -1.43430       -1.85408       -0.57054
O         -0.85529       -2.93528        0.23485
O         -0.42340       -1.11777       -1.40182
O         -2.26738       -0.89218        0.21105
C         -2.54551       -2.59165       -1.75453
H         -1.97454       -3.30107       -2.35378
H         -3.33582       -3.10088       -1.20261
H         -2.95648       -1.80082       -2.38232
S          2.67076        0.22186       -0.50883
O          3.65829       -0.07904        0.51224
O          1.59913        1.17434       -0.18862
O          2.06223       -1.11143       -1.05926
H          1.03131       -1.10904       -1.14097
C          3.52292        0.84913       -1.94056
H          4.01623        1.77667       -1.64851
H          4.25585        0.10463       -2.25077
H          2.78954        1.02754       -2.72680
H          0.50871        0.94516        3.41589
H         -1.20388        0.51190        3.61581
H          0.34191       -1.46671        3.96652
H         -0.82289       -1.71186        2.65938
H          2.03602       -1.29752        2.29541
H          0.94273       -2.20853        1.43140
H         -0.86669        1.82539        1.55092
H          0.28829        0.70216        1.06936
C         -0.31025        0.34525        3.00910
C          0.06215       -1.13997        2.95526
N         -0.57045        0.81917        1.63349
N          1.08643       -1.34935        1.94936
H         -1.29236        0.22976        1.16992
H         -1.61240        4.37889       -0.97103
H         -0.05225        3.62848       -0.57200
H         -1.38262        2.38139       -2.31436
H         -0.89826        1.40478       -0.95040
H         -3.58071        2.13336       -1.66747
H         -3.02557        0.88536       -0.73542
H         -1.33419        4.26135        1.41045
H         -2.51948        3.21733        0.94037
C         -1.13743        3.50579       -0.49868
C         -1.55269        2.23109       -1.24034
N         -1.51486        3.39261        0.91871
N         -2.93823        1.87911       -0.92843
