40
2msa1dma1eda_173.log	Energy: -1038024.4204550
S         -2.39878        1.64191        0.09429
O         -3.67382        0.94388        0.33564
O         -1.76729        1.27298       -1.21024
O         -1.40796        1.47358        1.20288
H         -0.87373       -0.10464        1.32763
C         -2.75844        3.38395        0.01963
H         -3.20286        3.67618        0.97100
H         -1.82541        3.92008       -0.15303
H         -3.45912        3.54676       -0.79942
S          3.80299       -0.02868        0.00355
O          3.52882        0.21840       -1.43817
O          3.84679       -1.45756        0.36302
O          2.83663        0.74000        0.86274
H          1.37366        0.76827       -0.06739
C          5.41192        0.66234        0.34468
H          6.13879        0.13742       -0.27561
H          5.38908        1.72445        0.10111
H          5.62793        0.51161        1.40253
N         -3.02552       -1.89986       -0.02589
C         -3.72304       -3.03884        0.56649
C         -2.88978       -2.00714       -1.47941
H         -3.53398       -1.03290        0.17292
H         -3.13308       -3.95031        0.42381
H         -3.85315       -2.87465        1.63952
H         -4.71359       -3.20178        0.11938
H         -2.20918       -2.82860       -1.73103
H         -3.85292       -2.20001       -1.97170
H         -2.48833       -1.06677       -1.86659
H         -0.18484       -1.36264       -1.39199
H          1.57990       -1.51084       -1.19040
H          0.59179       -2.64344        0.64444
H          1.38044       -1.17778        1.24555
H         -1.61158       -1.52944        0.75410
H         -0.77325       -1.48684        2.24940
H          1.44844        0.62159       -1.66848
H         -0.10736        0.88350       -0.99725
C          0.67078       -1.06566       -0.78178
C          0.54406       -1.55253        0.65169
N          0.81794        0.41330       -0.88596
N         -0.73719       -1.14972        1.28920
