40
2msa1dma1eda_110.log	Energy: -1038027.3375331
S         -2.63697        0.21596        0.76349
O         -2.45078       -0.93674       -0.15089
O         -4.00952        0.67672        0.94606
O         -1.69379        1.33468        0.34208
H         -1.24431        0.88272       -1.25473
C         -2.02894       -0.32156        2.35765
H         -2.70107       -1.10433        2.71124
H         -1.01813       -0.71855        2.23811
H         -2.05437        0.52488        3.04599
S          1.51395       -1.74768        0.08288
O          2.80545       -2.42284        0.01179
O          1.35067       -0.68751       -0.98157
O          1.20452       -1.15217        1.42540
H          0.95888        0.43878        1.32689
C          0.22188       -2.93755       -0.21417
H          0.39160       -3.38170       -1.19599
H          0.29540       -3.70091        0.56118
H         -0.74225       -2.42315       -0.16517
N         -0.76621        0.53806       -2.12511
C         -0.04687        1.65184       -2.77642
C         -1.73976       -0.14696       -3.00267
H         -0.05745       -0.13510       -1.75341
H         -0.75741        2.43893       -3.03288
H          0.71454        2.04017       -2.09669
H          0.44282        1.28330       -3.67926
H         -2.46069        0.58433       -3.37228
H         -1.20816       -0.60253       -3.84004
H         -2.25654       -0.89619       -2.40435
H          1.84296        3.30031        1.35956
H          2.09049        2.09778        2.65448
H          4.12068        2.41160        1.13524
H          3.53449        0.74810        1.20803
H          3.81991        2.23845       -1.08582
H          2.95479        0.83911       -0.96341
H         -0.06566        1.78647        1.21612
H          1.00334        1.42964        0.02645
C          2.02727        2.24516        1.57460
C          3.29069        1.75720        0.85627
N          0.89523        1.45854        1.04588
N          3.06616        1.78047       -0.59159
