42
2msa2eda_256.log	Energy: -1072755.1422692
S          0.31051       -1.73609        1.15622
O          1.33698       -2.76492        1.27489
O         -0.19362       -1.57591       -0.26395
O          0.70071       -0.39859        1.68676
H          0.27996        0.77797        0.41418
C         -1.11629       -2.23575        2.10452
H         -1.47671       -3.18449        1.70506
H         -0.79988       -2.35356        3.14121
H         -1.87563       -1.45653        2.01686
S         -2.86683        0.30691       -0.73647
O         -2.10437        1.13906       -1.67650
O         -2.75128        0.66791        0.67399
O         -2.53398       -1.20439       -0.94961
H         -1.54018       -1.40712       -0.64698
C         -4.57175        0.32007       -1.22831
H         -4.92410        1.34659       -1.12362
H         -4.63419       -0.00809       -2.26535
H         -5.12488       -0.34744       -0.56831
H          0.76227        3.61087       -0.16312
H         -0.84482        3.10991        0.42379
H          0.71565        3.81309        2.25312
H          0.06858        2.17907        2.44836
H          2.60006        2.64564        2.71288
H          2.11083        1.28817        1.95844
H         -0.32511        1.42849       -0.99766
H          1.37044        1.45583       -0.67051
C          0.21904        2.86156        0.41868
C          0.74905        2.79738        1.84739
N          0.38393        1.55543       -0.26559
N          2.12798        2.30423        1.88376
H          1.79382       -0.99070       -1.72957
H          3.07570       -2.11009       -1.29330
H          2.92928       -0.32339        0.35712
H          4.47900       -0.21837       -0.49196
H          3.43773        1.94917       -0.37932
H          3.37126        1.42131       -1.95705
H          4.42625       -1.14243       -3.00814
H          2.95284       -1.21948       -3.70359
C          2.88043       -1.08970       -1.64763
C          3.39100       -0.10069       -0.60925
N          3.47753       -0.78538       -2.95330
N          3.02892        1.26568       -1.01136
