44
2msa2tma_14.log	Energy: -1052602.9477980
S          0.19358        2.23152       -0.09781
O          1.10787        2.84605       -1.05664
O          0.52964        2.38162        1.32820
O          0.00248        0.73394       -0.39858
C         -1.42997        2.92912       -0.34481
H         -1.37413        3.98397       -0.07442
H         -1.69310        2.81973       -1.39757
H         -2.13933        2.39301        0.28759
S         -2.85290       -0.88717       -0.30997
O         -3.33173        0.19683        0.53927
O         -2.14630       -1.98444        0.35201
O         -1.98258       -0.32086       -1.49354
H         -1.14708        0.15487       -1.10827
C         -4.20773       -1.55564       -1.24342
H         -4.68914       -0.74027       -1.78251
H         -3.81971       -2.30874       -1.92846
H         -4.89495       -2.00156       -0.52380
N          3.08348       -1.02269       -0.92007
C          3.64938        0.31180       -1.08083
H          2.85776        1.06470       -1.05304
H          4.35536        0.51736       -0.26890
H          4.19293        0.41753       -2.03785
C          4.12597       -2.03451       -0.91765
H          4.83490       -1.84025       -0.10601
H          3.68598       -3.02550       -0.76077
H          4.69250       -2.06113       -1.86768
C          2.10003       -1.28870       -1.96163
H          1.62990       -2.26387       -1.79267
H          1.32593       -0.51985       -1.93140
H          2.55606       -1.29878       -2.96899
N          0.83454       -0.72081        1.76020
C         -0.26869       -0.42653        2.71164
H         -0.33777        0.65600        2.82016
H         -1.19588       -0.82392        2.29863
H         -0.04293       -0.90267        3.66879
C          0.92430       -2.16624        1.43749
H         -0.03022       -2.48561        1.01871
H          1.72746       -2.28742        0.71006
H          1.14546       -2.71746        2.35471
C          2.13344       -0.18187        2.23745
H          2.87951       -0.40531        1.47441
H          2.02653        0.89608        2.35922
H          2.38547       -0.66533        3.18440
H          0.59613       -0.21038        0.87408
