38
2msa1ma1tma_64.log	Energy: -1003281.1526933
S         -1.10827        1.91234       -0.10623
O          0.06222        2.32850        0.66903
O         -2.37587        1.78900        0.63468
O         -0.84728        0.62298       -0.88224
C         -1.35532        3.14053       -1.37779
H         -1.56933        4.08817       -0.88271
H         -0.43899        3.21406       -1.96389
H         -2.19343        2.83364       -2.00348
S          1.64048       -1.65320       -0.29294
O          1.55378       -2.84160       -1.13047
O          0.69233       -1.56089        0.82217
O          1.49914       -0.35785       -1.19036
H          0.59667        0.08705       -1.04770
C          3.28975       -1.45695        0.31582
H          3.49074       -2.31295        0.96148
H          3.96361       -1.45869       -0.54174
H          3.32758       -0.50378        0.86303
N          2.96184        1.59285        1.29378
H          1.94677        1.67339        1.26736
C          3.52120        2.21225        0.09406
H          3.26100        3.27299       -0.03412
H          4.61298        2.12708        0.10849
H          3.15726        1.66879       -0.78268
H          3.27327        2.08440        2.12459
N         -2.34395       -1.37608        0.26813
C         -3.66033       -0.93917       -0.26260
H         -3.81590        0.09853        0.03272
H         -3.63857       -1.01524       -1.35029
H         -4.43890       -1.58894        0.14308
C         -1.99231       -2.74310       -0.19300
H         -1.92774       -2.74180       -1.28163
H         -1.02449       -3.01364        0.22459
H         -2.76966       -3.43576        0.13747
C         -2.28436       -1.25171        1.74948
H         -1.27534       -1.50921        2.06831
H         -2.50271       -0.21449        2.00552
H         -3.02033       -1.93014        2.18734
H         -1.64123       -0.69933       -0.12066
