38
2msa2dma_36.log	Energy: -1003288.5141136
S          1.80882       -1.50703       -0.00145
O          2.80853       -0.72285        0.74022
O          1.71871       -1.21834       -1.44272
O          0.45016       -1.39514        0.66964
C          2.25374       -3.22729        0.16038
H          3.23261       -3.36231       -0.30041
H          2.28922       -3.47296        1.22178
H          1.50238       -3.82674       -0.35420
S         -2.56509       -0.40411       -0.14103
O         -2.34225        0.68628       -1.08690
O         -2.37953       -0.07305        1.27532
O         -1.71186       -1.65913       -0.50937
H         -0.75837       -1.59661       -0.06441
C         -4.19909       -1.05483       -0.38484
H         -4.90068       -0.24524       -0.18182
H         -4.28364       -1.38720       -1.41929
H         -4.34689       -1.88134        0.30931
N          0.16945        1.49696        1.31153
C         -0.83873        2.56898        1.41758
C          1.24227        1.56835        2.32521
H         -0.29045        0.58015        1.37150
H         -0.33480        3.53260        1.31490
H         -1.56888        2.43802        0.61914
H         -1.34214        2.51076        2.38375
H          1.75293        2.52854        2.22627
H          0.80807        1.48361        3.32363
H          1.94351        0.75377        2.13628
H          0.61155        1.54326        0.30714
N          1.24465        1.71071       -1.17123
C          2.61534        2.20777       -1.05536
C          0.39815        2.53126       -2.03569
H          1.28138        0.75341       -1.53011
H          2.61003        3.18414       -0.55649
H          3.19674        1.50263       -0.45638
H          3.09950        2.32905       -2.03470
H          0.28074        3.52744       -1.59367
H          0.82568        2.65461       -3.04114
H         -0.58708        2.06726       -2.11676
