34
2msa1a1eda_25.log	Energy: -988714.0867229
S          2.75467        0.72477       -0.12359
O          2.76483        0.00102       -1.41323
O          3.38364       -0.00852        0.99279
O          1.34778        1.15503        0.22104
H          0.35488       -0.03229       -0.63119
C          3.66614        2.23895       -0.34721
H          4.69322        1.97615       -0.60166
H          3.19778        2.80251       -1.15387
H          3.63237        2.79795        0.58792
S         -3.01086        0.52786       -0.06157
O         -2.60144        0.20974       -1.46203
O         -2.69259        1.88861        0.37747
O         -2.48148       -0.51629        0.88625
H         -1.14441       -0.10104        1.76040
C         -4.78438        0.33892       -0.03836
H         -5.20311        1.05843       -0.74236
H         -5.02890       -0.68067       -0.33582
H         -5.13418        0.54342        0.97366
N         -0.16702       -0.04611        2.15708
H         -0.18054        0.13816        3.15506
H          0.37869        0.67560        1.64766
H          0.31809       -0.95034        1.92671
H          1.86910       -2.53271       -0.98264
H          0.84574       -3.77427       -0.26056
H         -0.57612       -2.64602       -1.74059
H         -1.04389       -2.04430       -0.14114
H          0.60953       -0.60545       -2.11853
H         -0.99949       -0.26852       -1.59242
H          1.55620       -2.99582        1.66458
H          2.20534       -1.63562        1.03938
C          1.02873       -2.69616       -0.29817
C         -0.23622       -2.06916       -0.87667
N          1.35788       -2.21101        1.05414
N         -0.05699       -0.66851       -1.34666
