42
2msa2eda_191.log	Energy: -1072759.2945809
S         -0.90026       -2.31368       -0.33643
O          0.27942       -2.21721       -1.22414
O         -1.95282       -1.29532       -0.65797
O         -0.56883       -2.29777        1.10721
H         -0.82970        0.76697        1.24717
C         -1.65630       -3.89445       -0.68200
H         -1.90793       -3.92744       -1.74226
H         -0.93556       -4.67423       -0.43420
H         -2.55286       -3.98933       -0.06932
S          0.73694        2.16697       -0.54434
O         -0.00096        3.42914       -0.54806
O          0.59589        1.38494        0.73047
O          2.19298        2.30090       -0.87940
H          3.12562        1.19145       -0.36966
C          0.05040        1.13233       -1.82638
H         -1.01569        0.99917       -1.63707
H          0.20942        1.63641       -2.78022
H          0.53355        0.15346       -1.80360
H         -3.66269        0.89428        2.19385
H         -2.36346        2.08621        2.49068
H         -3.79375        2.91666        0.73490
H         -2.23276        2.51387        0.02825
H         -4.29990        1.69573       -1.17578
H         -3.30699        0.44943       -0.80917
H         -1.57627       -0.27852        2.32109
H         -1.99842       -0.30828        0.73384
C         -2.77788        1.37568        1.77159
C         -3.14157        2.07858        0.47082
N         -1.75005        0.33243        1.52453
N         -3.88832        1.18125       -0.40636
H          4.47186       -0.40903        1.77409
H          3.13439        0.76876        1.93309
H          2.41451       -1.72020        2.09843
H          1.55045       -0.73762        0.92408
H          3.43216       -2.84539        0.32721
H          2.10231       -2.30803       -0.49690
H          4.76924        0.88763       -0.10450
H          3.79074       -0.39026       -0.62489
C          3.54064       -0.04473        1.33082
C          2.52144       -1.17870        1.15300
N          3.84765        0.46560       -0.03237
N          2.92916       -2.01844        0.02865
