38
2msa2dma_02.log	Energy: -1003304.2565440
S          2.61470        0.00126       -0.08270
O          2.31370       -1.23936       -0.85448
O          1.99116        0.00137        1.25498
O          2.31147        1.24046       -0.85581
C          4.38491        0.00298        0.14128
H          4.85462        0.00246       -0.84229
H          4.65593        0.90046        0.69770
H          4.65752       -0.89293        0.69943
S         -2.61468       -0.00159       -0.08285
O         -1.99040        0.00209        1.25448
O         -2.31535       -1.24468       -0.85118
O         -2.31046        1.23509       -0.85967
C         -4.38475        0.00253        0.14215
H         -4.65449        0.90172        0.69640
H         -4.85504       -0.00011       -0.84114
H         -4.65790       -0.89167        0.70279
N         -0.00186        2.46379       -0.11627
C         -0.00304        3.75049       -0.83715
C         -0.00140        2.58916        1.35718
H         -0.85105        1.92094       -0.40796
H          0.89180        4.31510       -0.56988
H         -0.00361        3.55095       -1.90870
H         -0.89812        4.31418       -0.56874
H          0.89532        3.12793        1.66762
H         -0.89960        3.12495        1.66850
H          0.00040        1.58706        1.78255
H          0.84818        1.92264       -0.40813
N          0.00144       -2.46427       -0.11657
C          0.00142       -2.58826        1.35704
C          0.00311       -3.75169       -0.83616
H         -0.84910       -1.92389       -0.40833
H          0.89998       -3.12329        1.66858
H         -0.00078       -1.58576        1.78149
H         -0.89500       -3.12713        1.66819
H          0.89806       -4.31504       -0.56662
H         -0.89189       -4.31604       -0.56891
H          0.00444       -3.55325       -1.90792
H          0.85068       -1.92168       -0.40846
