42
2msa2eda_420.log	Energy: -1072749.7930522
S         -2.36170       -0.11751        0.98110
O         -1.80299       -1.48574        1.19891
O         -2.99194        0.05261       -0.34623
O         -1.35997        0.94928        1.26627
C         -3.63671        0.04963        2.21250
H         -4.38213       -0.72518        2.03305
H         -3.17759       -0.07393        3.19321
H         -4.07675        1.04163        2.11057
S          0.65920       -2.11290       -1.13284
O          1.69068       -1.94041       -0.11582
O          0.26682       -0.91137       -1.87463
O         -0.60123       -2.83178       -0.55065
H         -1.10131       -2.25588        0.15180
C          1.18901       -3.34500       -2.29454
H          2.08669       -2.95461       -2.77472
H          1.40929       -4.26107       -1.74736
H          0.39336       -3.49924       -3.02269
H         -0.89867        2.87516       -3.04182
H         -1.79910        3.46728       -1.61838
H          0.37805        4.68514       -2.01001
H          0.27912        3.92306       -0.41867
H          2.33781        3.53888       -2.05299
H          1.79702        2.34009       -1.04368
H         -1.73383        1.06353       -1.56405
H         -0.08222        1.04391       -1.71917
C         -0.88507        2.97186       -1.95434
C          0.36467        3.71874       -1.49751
N         -0.87680        1.60478       -1.38512
N          1.54895        2.94439       -1.83472
H         -0.82623        1.60643       -0.34735
H          1.83154        0.39952        3.29991
H          3.46680        1.03850        3.53997
H          2.17717        2.51829        2.08629
H          3.53777        1.81189        1.19975
H          2.00447        0.26471        0.21160
H          0.75873        0.88011        1.05229
H          3.71798       -1.23192        3.06101
H          2.79620       -1.16897        1.71710
C          2.79825        0.58351        2.79945
C          2.57308        1.58548        1.66743
N          3.43485       -0.63016        2.29634
N          1.65238        1.12573        0.62513
