34
2msa1a1eda_76.log	Energy: -988705.1047030
S          1.49630        1.64543       -0.05400
O          2.72760        1.61794       -0.84111
O          1.58300        1.01296        1.27954
O          0.33958        1.04758       -0.85108
C          1.02722        3.34629        0.20658
H          1.82349        3.82377        0.77810
H          0.91438        3.82095       -0.76819
H          0.08904        3.36697        0.76239
S         -2.77255       -0.22480       -0.04220
O         -2.83192       -0.65795        1.34811
O         -2.20768       -1.16483       -1.01439
O         -2.05248        1.16279       -0.16045
H         -1.04229        1.09996       -0.42388
C         -4.41044        0.22551       -0.56126
H         -5.02110       -0.67603       -0.50383
H         -4.78519        0.98839        0.12072
H         -4.35904        0.59905       -1.58331
N          0.06069       -1.45281        2.01086
H          0.51387       -2.07318        2.67245
H         -0.93509       -1.39579        2.21272
H          0.46280       -0.52075        2.11778
H          1.68185       -3.51960       -0.63123
H          1.72128       -2.63440       -2.17884
H          3.86263       -2.45704       -1.00689
H          3.11747       -0.86371       -1.16522
H          4.06628       -1.73214        1.10898
H          2.72188       -0.81690        1.09864
H         -0.32510       -2.11664       -1.04159
H          0.42267       -1.74261        0.41137
C          1.74923       -2.53036       -1.09041
C          3.03428       -1.83425       -0.65485
N          0.55588       -1.76202       -0.66429
N          3.10198       -1.71442        0.79982
H          0.59386       -0.76662       -0.95100
