38
2msa1ma1tma_70.log	Energy: -1003280.3846531
S          1.00102        1.49003       -0.25996
O          2.02072        2.02231       -1.15929
O          1.49360        0.84576        0.97290
O          0.07376        0.50425       -0.98943
C         -0.07264        2.82595        0.22956
H         -0.85843        2.42451        0.87199
H          0.54100        3.54772        0.76950
H         -0.49011        3.27930       -0.67013
S         -2.99507        0.02039        0.25402
O         -2.62791        0.85947        1.38577
O         -2.65474       -1.40120        0.33229
O         -2.43973        0.62845       -1.09151
H         -1.40890        0.62954       -1.08130
C         -4.73581        0.17745       -0.06219
H         -4.96638        1.23399       -0.19471
H         -4.98090       -0.39612       -0.95549
H         -5.24937       -0.22468        0.81154
N          4.25925       -0.30253        1.09462
H          3.47124        0.27311        1.38438
C          4.92343        0.32546       -0.04840
H          5.42027        1.27829        0.18295
H          5.67082       -0.35894       -0.46364
H          4.17736        0.53354       -0.82022
H          4.89545       -0.38723        1.87960
N          0.73397       -2.01929       -0.23503
C          2.16677       -2.22509       -0.57051
H          2.31908       -1.95237       -1.61595
H          2.79571       -1.60301        0.07707
H          2.40911       -3.28038       -0.42085
C          0.47799       -2.17650        1.22042
H          1.07763       -1.43331        1.74504
H         -0.58226       -1.99724        1.40160
H          0.75612       -3.19019        1.51855
C         -0.15546       -2.87750       -1.05457
H         -1.19090       -2.63391       -0.81530
H          0.04358       -2.67741       -2.10827
H          0.05477       -3.92556       -0.82901
H          0.49612       -1.02457       -0.48101
