38
2msa2dma_131.log	Energy: -1003283.1066951
S          1.47903       -1.69179       -0.57476
O          2.55454       -2.47184       -1.14462
O          0.12512       -2.43783       -0.88921
O          1.35183       -0.28721       -1.01625
H          0.12843        0.82145       -1.35377
C          1.57613       -1.68925        1.19532
H          1.77942       -2.71203        1.51253
H          2.37619       -0.99883        1.47999
H          0.61941       -1.33319        1.58807
S         -2.25029       -0.18004        0.73955
O         -2.23651        1.29370        0.49846
O         -1.43620       -0.61789        1.87789
O         -1.91066       -0.90202       -0.53635
H         -0.68295       -1.85361       -0.70028
C         -3.94492       -0.59906        1.09630
H         -4.23583       -0.06626        2.00185
H         -4.56325       -0.29454        0.25204
H         -4.00040       -1.67688        1.24987
N         -0.52616        1.60085       -1.57265
C         -1.23661        1.27392       -2.82693
C          0.22970        2.86800       -1.59980
H         -1.21589        1.59966       -0.77766
H         -0.51133        1.18102       -3.63676
H         -1.75650        0.32846       -2.67315
H         -1.95288        2.06563       -3.05221
H          0.99021        2.81926       -2.38060
H         -0.45639        3.69341       -1.79595
H          0.70961        3.00847       -0.63102
N          2.63450        1.38258        1.93062
C          1.20676        1.65873        1.94667
C          3.30321        1.94619        0.76904
H          3.06252        1.73073        2.78104
H          0.73439        1.15729        1.09699
H          0.74665        1.24795        2.84764
H          0.96562        2.73601        1.88862
H          2.94016        1.43870       -0.13080
H          3.13364        3.03282        0.64826
H          4.38026        1.77334        0.83970
