30
2msa1eda_72.log	Energy: -953202.2452821
S         -1.07479        1.71109       -0.07456
O         -1.99751        2.59498       -0.76654
O         -0.28456        0.80417       -0.99377
O         -1.70439        0.85200        0.98417
H         -1.20226       -0.66667        0.84019
C          0.13676        2.70984        0.77232
H          0.63612        3.33326        0.02949
H         -0.39835        3.33208        1.49012
H          0.85063        2.05528        1.27554
S          2.52273       -0.48620        0.04461
O          1.77174       -1.74914       -0.08437
O          2.41949        0.18106        1.33623
O          2.15110        0.47751       -1.12394
H          1.11331        0.68541       -1.10400
C          4.22293       -0.81162       -0.33848
H          4.59537       -1.49296        0.42684
H          4.27410       -1.26821       -1.32622
H          4.76277        0.13453       -0.31103
H         -3.34865       -2.66702        1.04698
H         -3.74521       -3.03898       -0.62843
H         -1.40649       -3.33469       -0.50296
H         -1.60594       -1.74368       -1.28428
H         -1.01440       -2.17255        1.57352
H          0.07645       -1.69397        0.40926
H         -4.84068       -1.00814       -0.05485
H         -3.41481       -0.24692        0.27633
C         -3.24665       -2.29966        0.00687
C         -1.76976       -2.31338       -0.36752
N         -3.84703       -1.00496       -0.24714
N         -0.92519       -1.68087        0.68560
