40
2msa1dma1eda_138.log	Energy: -1038023.1744345
S          1.39018        1.88480        0.24607
O          1.28872        1.57226       -1.20361
O          2.41820        1.09674        0.94708
O          0.05004        1.78874        0.91736
C          1.86291        3.59845        0.36596
H          1.10676        4.19813       -0.14074
H          1.92074        3.85712        1.42332
H          2.83494        3.71455       -0.11360
S         -2.76448        0.10656       -0.28537
O         -2.64598       -0.55984        1.00478
O         -2.27432       -0.63409       -1.45550
O         -2.13943        1.53831       -0.24507
H         -1.20745        1.60618        0.22509
C         -4.46170        0.52910       -0.59336
H         -5.00793       -0.41021       -0.68348
H         -4.82839        1.11366        0.24968
H         -4.51265        1.09678       -1.52197
N          0.52670       -2.13346        1.31695
C         -0.45147       -3.21710        1.35941
C          0.41213       -1.21912        2.45574
H          1.47399       -2.50550        1.26948
H         -1.45402       -2.78806        1.27798
H         -0.29097       -3.89503        0.51486
H         -0.39473       -3.80140        2.29000
H         -0.55868       -0.72058        2.41193
H          0.49958       -1.74829        3.41667
H          1.18996       -0.45695        2.38520
H          1.32286       -2.97933       -1.67589
H          1.30902       -1.81823       -3.02483
H          3.58681       -2.18621       -2.17766
H          3.08852       -0.50037       -1.99266
H          4.18771       -1.81326       -0.03724
H          2.98316       -0.76588        0.28632
H         -0.45153       -1.19721       -1.54601
H          0.50214       -1.40185       -0.16265
C          1.49201       -1.93510       -1.95318
C          2.92225       -1.52067       -1.61800
N          0.51550       -1.10572       -1.21197
N          3.19978       -1.64557       -0.18736
H          0.76021       -0.09690       -1.28789
