38
2msa1ma1tma_30.log	Energy: -1003284.8673109
S         -0.99193       -2.03211        0.21402
O          0.20234       -2.67696       -0.34524
O         -2.17355       -1.97998       -0.66126
O         -0.66841       -0.63533        0.73156
C         -1.45475       -2.95172        1.67255
H         -1.69520       -3.96791        1.35868
H         -0.60971       -2.95443        2.36160
H         -2.32411       -2.47373        2.12415
S          2.53445        0.33727       -0.02463
O          3.65562        1.18486        0.32582
O          1.59392        0.79557       -1.05087
O          1.72222        0.05586        1.30602
H          0.78899       -0.28647        1.08628
C          3.11623       -1.27315       -0.49738
H          3.65649       -1.15400       -1.43739
H          3.78226       -1.63245        0.28713
H          2.24579       -1.92392       -0.61465
N         -0.92605        2.15908        1.68560
H         -1.12370        1.16949        1.81072
C         -1.66362        2.96895        2.65275
H         -1.44174        2.74073        3.70488
H         -1.44790        4.02815        2.48463
H         -2.73811        2.82723        2.49892
H          0.07544        2.25870        1.82440
N         -1.31439        1.20077       -1.40179
C         -2.74802        1.19579       -1.01058
H         -3.04768        0.16085       -0.84096
H         -2.84326        1.77902       -0.09470
H         -3.33121        1.64505       -1.81739
C         -0.79491        2.58467       -1.55393
H         -0.92485        3.08698       -0.59515
H          0.26362        2.52766       -1.80084
H         -1.35957        3.07896       -2.34781
C         -1.07491        0.37996       -2.61992
H          0.00032        0.32775       -2.78496
H         -1.47917       -0.61793       -2.44610
H         -1.57594        0.85936       -3.46380
H         -0.80520        0.74029       -0.62365
