38
2msa2dma_241.log	Energy: -1003268.5462226
S         -3.02468       -0.55563        0.23438
O         -4.06775       -1.53100        0.49273
O         -2.25055       -0.66103       -1.00197
O         -2.01682       -0.53746        1.46366
H         -1.07797       -0.75397        1.18038
C         -3.71799        1.07443        0.34769
H         -4.47625        1.14560       -0.43372
H         -4.17827        1.17397        1.33115
H         -2.92127        1.81284        0.19471
S          1.26255       -1.23898       -0.30953
O          1.43370        0.01903       -1.05987
O          0.46804       -1.08347        0.93827
O          2.60159       -1.86141        0.00702
H          3.54212       -0.78020        0.41242
C          0.41723       -2.41252       -1.33865
H         -0.57586       -2.00534       -1.53866
H          0.99331       -2.53448       -2.25584
H          0.35047       -3.35283       -0.79104
N          4.12674        0.10526        0.68541
C          3.29459        0.91368        1.61114
C          4.48330        0.81900       -0.56461
H          4.96745       -0.21398        1.16370
H          2.39426        1.21170        1.07272
H          3.00915        0.29347        2.46078
H          3.85273        1.79197        1.94062
H          3.55143        1.01875       -1.09636
H          5.00833        1.74615       -0.32683
H          5.11510        0.17019       -1.17151
N         -1.10452        3.01683       -0.35981
C         -0.85307        2.45027       -1.68071
C         -0.09417        2.63848        0.61427
H         -1.15833        4.02753       -0.42224
H         -0.90847        1.36045       -1.62105
H         -1.62177        2.79663       -2.37753
H          0.13893        2.71259       -2.08517
H         -0.10984        1.55297        0.74898
H          0.93091        2.91892        0.30669
H         -0.31270        3.10883        1.57763
