26
2msa2a_57.log	Energy: -904639.0475103
S         -2.34093       -0.40517       -0.06027
O         -2.79955        0.82780       -0.73699
O         -2.00320       -0.16381        1.38284
O         -1.24669       -1.10027       -0.77356
C         -3.73399       -1.52072       -0.03088
H         -3.43568       -2.43127        0.48902
H         -4.55559       -1.02882        0.48983
H         -4.00737       -1.73802       -1.06370
S          2.65417       -0.35598        0.07652
O          2.23256        0.52617        1.15349
O          4.05464       -0.70601       -0.06529
O          2.20770        0.39636       -1.29746
H          2.87904        0.22085       -1.97234
C          1.63440       -1.80199        0.07045
H          1.77943       -2.28367        1.03883
H          0.58822       -1.50424       -0.08112
H          1.97665       -2.45063       -0.73630
N         -0.27572        1.87564        1.52940
H         -0.30442        2.27572        0.53478
H          0.65487        1.46691        1.66292
H         -0.46540        2.58727        2.22777
H         -0.99765        1.09665        1.56906
N         -0.39785        2.46838       -1.16124
H          0.31995        1.88223       -1.58028
H         -0.39486        3.36382       -1.63708
H         -1.30029        2.00789       -1.32012
