31
2msa1tma_10.log	Energy: -943128.8243179
S         -3.11502       -0.54292       -0.14357
O         -4.26784       -1.37830       -0.41126
O         -2.88076        0.65400       -0.94480
O         -1.83322       -1.48360       -0.23653
H         -1.00227       -0.93524       -0.36046
C         -3.12062       -0.06762        1.57261
H         -3.98230        0.58471        1.72025
H         -3.21613       -0.97241        2.17277
H         -2.18758        0.46046        1.78264
S          0.57647        1.20188        0.12570
O         -0.10463        1.32651        1.41543
O          0.39609       -0.14452       -0.51772
O          2.05119        1.49889        0.18379
H          2.83692        0.19582        0.05415
C         -0.12115        2.39697       -0.99032
H         -1.17972        2.15311       -1.09991
H          0.01817        3.38440       -0.54964
H          0.39771        2.31866       -1.94559
N          3.39082       -0.72867       -0.00773
C          4.80388       -0.40642        0.28721
H          5.16372        0.31143       -0.45051
H          4.86473        0.03929        1.28052
H          5.40542       -1.31781        0.24740
C          2.80213       -1.63801        1.00630
H          2.89143       -1.17015        1.98733
H          1.74747       -1.77535        0.76748
H          3.33394       -2.59242        0.99081
C          3.20672       -1.25284       -1.38261
H          2.13640       -1.36296       -1.55689
H          3.61597       -0.53057       -2.08998
H          3.72480       -2.20998       -1.48059
