40
2msa1dma1eda_386.log	Energy: -1038015.8108117
S         -3.36681       -0.48412        0.24712
O         -3.94930        0.85074        0.47941
O         -2.46773       -0.96303        1.31539
O         -2.70318       -0.56798       -1.10570
H         -1.76330        0.67007       -1.32521
C         -4.72601       -1.64077        0.15258
H         -5.24120       -1.62576        1.11352
H         -5.39542       -1.32386       -0.64725
H         -4.32115       -2.63257       -0.04960
S          1.53397       -1.02137       -0.27492
O          1.09990       -0.12913       -1.37540
O          1.75322       -0.30143        1.00457
O          2.78306       -1.77926       -0.66106
H          3.94417       -0.89614       -0.37250
C          0.27295       -2.24055       -0.01829
H         -0.62563       -1.73680        0.35266
H          0.07867       -2.72619       -0.97452
H          0.64501       -2.95352        0.71777
N          4.71622       -0.16630       -0.09731
C          4.91230       -0.24727        1.37008
C          4.26502        1.16777       -0.56816
H          5.57265       -0.43011       -0.58144
H          3.93681       -0.09469        1.83451
H          5.27936       -1.24328        1.61864
H          5.62745        0.51175        1.69294
H          3.33002        1.40808       -0.06055
H          5.02870        1.91533       -0.34565
H          4.07764        1.11340       -1.64044
H         -1.09997        3.55923       -0.96359
H         -2.58969        2.65456       -0.51305
H         -1.34366        3.13332        1.49790
H         -1.27283        1.40929        1.20188
H          0.88994        3.13035        1.47037
H          0.96059        1.54717        1.03375
H         -1.20733        1.78633       -2.45196
H         -0.15253        1.17476       -1.32521
C         -1.49863        2.62697       -0.55588
C         -0.91742        2.37764        0.83046
N         -1.12053        1.51674       -1.47534
N          0.54575        2.44883        0.80685
