38
2msa2dma_49.log	Energy: -1003287.0224859
S          2.83982       -0.13962        0.01616
O          2.88033       -1.53099        0.49425
O          3.03836        0.91478        1.00595
O          1.53701        0.06299       -0.77462
C          4.11188        0.03318       -1.22483
H          5.07365       -0.11307       -0.73211
H          3.95450       -0.72281       -1.99408
H          4.04647        1.03665       -1.64582
S         -1.13298        1.97735       -0.04315
O         -0.99324        0.99275        1.03136
O         -2.23982        1.75629       -0.97476
O          0.21027        2.13991       -0.81394
H          0.82761        1.28213       -0.75998
C         -1.30834        3.59638        0.66479
H         -2.25861        3.61547        1.19894
H         -0.47228        3.76131        1.34395
H         -1.30712        4.32549       -0.14518
N         -0.23134       -1.81380        0.29918
C          0.15198       -3.03824       -0.43049
C         -0.07974       -1.92536        1.76605
H          0.37560       -1.04055       -0.04169
H         -0.46658       -3.87121       -0.08964
H         -0.00742       -2.87323       -1.49685
H          1.20795       -3.23812       -0.24361
H         -0.73352       -2.72038        2.13144
H          0.96448       -2.14688        1.99060
H         -0.35982       -0.97005        2.20744
H         -1.23297       -1.55207        0.04965
N         -2.87890       -1.19174       -0.38804
C         -3.62952       -1.12614        0.86358
C         -3.48671       -2.08198       -1.37094
H         -2.80689       -0.24826       -0.77099
H         -3.61641       -2.10714        1.35191
H         -3.15037       -0.39987        1.52391
H         -4.67991       -0.83574        0.71332
H         -3.44952       -3.11408       -1.00491
H         -4.53886       -1.83499       -1.57830
H         -2.92849       -2.03032       -2.30919
