43
2msa1eda1tma_42.log	Energy: -1062690.2533505
S          2.44146        1.02505       -0.58888
O          2.41837       -0.34340       -1.15758
O          1.99769        1.03461        0.83264
O          1.72122        2.03568       -1.40852
C          4.15199        1.54298       -0.59798
H          4.73102        0.83433       -0.00443
H          4.49972        1.54963       -1.63128
H          4.21148        2.54194       -0.16563
S         -2.24144       -1.29061       -0.49690
O         -3.26983       -0.24991       -0.32188
O         -2.30761       -2.42538        0.44514
O         -0.85789       -0.69536       -0.52562
C         -2.47764       -1.97595       -2.13199
H         -3.46639       -2.43442       -2.16615
H         -2.40165       -1.16882       -2.86090
H         -1.70304       -2.72275       -2.30975
H         -1.62175        3.76456       -0.66006
H         -2.39062        2.28494       -1.28836
H         -3.74316        3.29486        0.55767
H         -3.17076        1.66386        0.92821
H         -2.10111        4.15542        2.05382
H         -2.54147        2.78019        2.82454
H          0.13044        2.18407       -0.71016
H         -0.41296        2.18025        0.86612
C         -1.91427        2.73824       -0.41809
C         -2.84970        2.69908        0.78655
N         -0.68870        1.97613       -0.10054
N         -2.12447        3.14446        1.97708
H         -0.83343        0.93844       -0.19099
N          1.33178       -2.00342        0.91241
C          0.53416       -1.59438        2.09926
H          0.81351       -0.56957        2.34414
H         -0.52293       -1.66029        1.84508
H          0.77106       -2.27296        2.92221
C          0.85802       -3.29099        0.34275
H         -0.21920       -3.22310        0.18568
H          1.38037       -3.46077       -0.59933
H          1.08509       -4.08984        1.05233
C          2.78120       -2.04611        1.22996
H          3.33096       -2.24779        0.31205
H          3.06829       -1.06966        1.61890
H          2.95144       -2.82897        1.97255
H          1.20644       -1.28188        0.17738
