35
2msa1ma1dma_31.log	Energy: -978630.7994650
S          1.53211       -1.47959        0.14194
O          0.60129       -1.51093        1.28756
O          2.77520       -0.72933        0.37298
O          0.83321       -0.98922       -1.11432
C          1.97198       -3.16954       -0.21986
H          2.46946       -3.57983        0.65923
H          1.05753       -3.72178       -0.43771
H          2.64157       -3.17242       -1.07991
S         -2.46728       -0.19672       -0.26319
O         -3.79185        0.06808       -0.78685
O         -1.59230        0.93385        0.05908
O         -1.72714       -1.13476       -1.29931
H         -0.71835       -1.09766       -1.19112
C         -2.59389       -1.21876        1.18568
H         -3.10019       -0.63071        1.95237
H         -3.18337       -2.09797        0.92518
H         -1.58006       -1.48766        1.48960
N          0.87445        1.57587        1.78299
H          0.48695        0.63104        1.78403
C         -0.02667        2.50808        2.46654
H         -0.20687        2.24946        3.51728
H          0.39304        3.51757        2.43011
H         -0.98319        2.51149        1.93969
H          1.76871        1.50409        2.25962
N          1.19036        1.80515       -0.93873
C          0.28649        2.76835       -1.59626
C          2.62443        2.03313       -1.20827
H          1.03959        1.80643        0.13192
H          0.42448        2.71892       -2.67835
H         -0.73907        2.51177       -1.33341
H          0.52421        3.77461       -1.24497
H          2.80596        1.99264       -2.28415
H          2.90667        3.01595       -0.82491
H          3.18857        1.24805       -0.70323
H          0.95220        0.83053       -1.20110
