37
2msa1ma1eda_201.log	Energy: -1013360.3495308
S         -1.61452       -1.54197        0.38703
O         -1.47663       -1.20403       -1.04231
O         -2.85831       -1.07634        1.01861
O         -0.40575       -1.06342        1.17137
C         -1.57953       -3.31997        0.52471
H         -2.43686       -3.71475       -0.02097
H         -0.64716       -3.68081        0.08920
H         -1.64293       -3.57871        1.58170
S          2.61170       -0.41123       -0.34613
O          3.16662        0.60727        0.54499
O          1.74791        0.07561       -1.42380
O          1.90292       -1.54262        0.45861
H          0.89705       -1.32471        0.73998
C          3.95526       -1.33202       -1.05474
H          4.55591       -0.62727       -1.63028
H          4.53972       -1.76478       -0.24327
H          3.53988       -2.10549       -1.69978
N         -3.33059        1.57780       -0.28754
H         -3.42819        0.78790        0.35561
C         -3.80681        1.17253       -1.61700
H         -4.87268        0.91470       -1.63607
H         -3.63294        1.97987       -2.33483
H         -3.23366        0.29668       -1.93060
H         -3.88408        2.34610        0.07727
H          1.20697        2.40794       -0.97930
H         -0.26523        3.37846       -1.21371
H          1.20729        4.19771        0.68455
H         -0.43703        3.79908        1.20388
H          1.86604        1.99137        1.56050
H          0.90010        2.65874        2.73132
H         -0.33927        0.75592       -1.03183
H         -0.27759        1.07147        0.57823
C          0.25959        2.70918       -0.52861
C          0.49944        3.36902        0.83089
N         -0.54234        1.48087       -0.33512
N          0.93637        2.34904        1.76967
H         -1.59593        1.64353       -0.31632
