34
2msa1a1eda_115.log	Energy: -988703.3315683
S         -0.26689        2.13157       -0.17637
O          0.83537        2.22803        0.79321
O         -1.62219        2.25543        0.39328
O         -0.15985        0.87706       -1.01819
C         -0.07413        3.47202       -1.33844
H         -0.15328        4.40895       -0.78646
H          0.90763        3.38146       -1.80390
H         -0.86478        3.39558       -2.08474
S          2.47082       -1.18073        0.01154
O          3.43474       -2.18653       -0.38107
O          1.31217       -1.61331        0.81227
O          1.95944       -0.47189       -1.29585
H          1.12601        0.11211       -1.14784
C          3.28171        0.12035        0.90799
H          3.64280       -0.31066        1.84251
H          4.11453        0.47194        0.29879
H          2.55227        0.91543        1.08519
N         -2.36101        0.42919        2.55394
H         -3.30719        0.46185        2.91843
H         -2.19816        1.27618        1.99954
H         -1.72711        0.45934        3.34661
H         -1.45877       -3.08312       -0.43831
H         -2.20706       -2.98322        1.16370
H         -3.95919       -3.17762       -0.58236
H         -4.06137       -1.60793        0.22205
H         -2.95778       -2.05552       -2.45357
H         -4.06523       -0.94523       -1.96395
H         -0.39396       -1.32074        0.63033
H         -1.45211       -0.58303       -0.39870
C         -2.09385       -2.46934        0.20646
C         -3.44631       -2.21427       -0.45126
N         -1.40360       -1.18588        0.43782
N         -3.24364       -1.46352       -1.68230
H         -1.82410       -0.65077        1.24604
