35
2msa1ma1dma_183.log	Energy: -978619.8891712
S          1.91700       -1.64511       -0.05392
O          2.76757       -0.61757        0.57723
O          1.61900       -1.43358       -1.46490
O          0.61794       -1.85039        0.77885
H          0.04990       -0.94917        0.81485
C          2.69163       -3.22398        0.17492
H          3.63388       -3.20011       -0.37294
H          2.86262       -3.37396        1.24030
H          2.02672       -3.98689       -0.22921
S         -1.39221        0.93063       -0.23613
O         -2.66062        1.45345        0.26314
O         -0.55407        0.30451        0.86637
O         -0.54670        1.92859       -0.95919
H          0.93814        1.94296       -0.34274
C         -1.73467       -0.38307       -1.38665
H         -2.35142       -1.11749       -0.85918
H         -2.28145        0.05564       -2.22233
H         -0.78763       -0.80637       -1.72664
N         -4.07283       -1.23876        0.78980
H         -4.36107       -1.84423        1.54984
C         -5.20996       -0.86575       -0.04661
H         -6.03943       -0.38290        0.49144
H         -4.86543       -0.16526       -0.81245
H         -5.60241       -1.75337       -0.55283
H         -3.65773       -0.40253        1.19193
N          1.87809        2.01814        0.14191
C          1.65196        2.66009        1.45463
C          2.82285        2.72922       -0.74033
H          2.21114        1.04893        0.29943
H          1.23105        3.65388        1.29539
H          0.94019        2.04555        2.00607
H          2.59801        2.73109        1.99404
H          2.43319        3.72692       -0.94737
H          3.79695        2.80206       -0.25380
H          2.91543        2.17212       -1.67263
