34
2msa1a1eda_91.log	Energy: -988704.8621329
S         -1.81559       -1.57194       -0.17688
O         -2.80026       -0.45823       -0.17130
O         -1.48386       -2.09736        1.15711
O         -0.59325       -1.18577       -0.96443
C         -2.57718       -2.89404       -1.09787
H         -3.49162       -3.18025       -0.57816
H         -2.79774       -2.52936       -2.10095
H         -1.87548       -3.72755       -1.13277
S          2.58816       -0.15187       -0.18357
O          2.40149        0.42125        1.15093
O          2.31081        0.71754       -1.31977
O          1.80864       -1.50894       -0.30762
H          0.80834       -1.38917       -0.54661
C          4.25014       -0.77109       -0.29663
H          4.91600        0.08425       -0.17882
H          4.40411       -1.49421        0.50389
H          4.37981       -1.23264       -1.27493
N         -0.15306        0.11276        2.73330
H          0.82170        0.13110        2.43132
H         -0.54090       -0.79083        2.44991
H         -0.17765        0.16900        3.74551
H          0.41453        2.41960        0.33648
H         -0.22406        1.11132       -0.67053
H         -0.35315        3.28968       -1.87075
H         -1.95755        2.59962       -1.59665
H         -0.78723        4.82315       -0.09072
H         -2.22976        4.75940       -0.85495
H         -0.99471        1.19770        1.73264
H         -1.93103        2.56591        1.20343
C         -0.48560        2.03095       -0.14645
C         -1.09335        3.05010       -1.09767
N         -1.47175        1.69898        0.91159
N         -1.55936        4.20966       -0.33101
H         -2.16816        1.02097        0.53500
