42
2msa2eda_92.log	Energy: -1072770.3200478
S          3.17302        0.28592       -0.27678
O          2.43548        1.46929       -0.80191
O          2.83354       -0.95800       -1.04192
O          3.02909        0.11462        1.17945
C          4.89655        0.58495       -0.62321
H          5.01470        0.71471       -1.69884
H          5.19219        1.48885       -0.09021
H          5.46744       -0.27414       -0.27053
S         -2.82269       -0.69393       -0.22579
O         -2.58383       -0.36123        1.19304
O         -3.01379       -2.12394       -0.50819
O         -1.71684       -0.12333       -1.10459
C         -4.28380        0.19510       -0.72286
H         -4.45911        0.00835       -1.78253
H         -5.11588       -0.17532       -0.12338
H         -4.10296        1.25441       -0.52838
H         -0.88309       -3.11302        0.14871
H          0.67883       -3.86194       -0.26092
H          0.75613       -3.26330        2.03854
H          1.89055       -2.22847        1.15286
H         -0.77940       -1.31633        2.01350
H          0.68695       -0.92842        2.67802
H          0.22012       -2.43606       -1.98664
H         -0.39094       -1.22247       -1.06749
C          0.18923       -2.93081        0.03241
C          0.82926       -2.43310        1.32098
N          0.34925       -1.96331       -1.09427
N          0.21636       -1.20392        1.82161
H          1.31346       -1.52188       -1.08991
H         -1.51671        1.95670        1.75973
H          0.07253        2.74475        2.00005
H         -1.44523        4.34233        0.99101
H         -0.19609        3.91839       -0.18477
H         -2.52329        3.92816       -1.04849
H         -1.87604        2.44058       -1.21734
H          0.20858        0.45718        1.05594
H         -0.67023        0.93040       -0.22351
C         -0.64872        2.39192        1.25923
C         -1.07979        3.53427        0.35016
N         -0.00765        1.30990        0.48076
N         -2.17391        3.12929       -0.53123
H          0.87827        1.58772        0.01039
