38
2msa1ma1tma_111.log	Energy: -1003277.2888163
S          0.62085        2.02325        0.19538
O         -0.04027        3.29756        0.43878
O         -0.14634        1.09394       -0.71939
O          0.99886        1.25933        1.43024
H          0.18805       -0.09886        1.55561
C          2.14958        2.32253       -0.66747
H          1.90987        2.85487       -1.58840
H          2.77389        2.94126       -0.02166
H          2.63354        1.36567       -0.88317
S         -2.92332       -0.55777       -0.35939
O         -3.08930       -0.32910        1.08088
O         -1.97904       -1.62861       -0.70346
O         -2.56109        0.76078       -1.10179
H         -1.55069        1.01289       -0.93882
C         -4.50594       -0.89563       -1.08160
H         -4.88283       -1.80671       -0.61652
H         -5.16190       -0.05174       -0.86932
H         -4.36978       -1.03142       -2.15388
N         -0.34631       -1.01788        1.64123
H         -1.29511       -0.79109        1.96364
C          0.36257       -1.97077        2.51758
H         -0.20477       -2.89817        2.59555
H          1.34406       -2.17135        2.08814
H          0.48446       -1.52179        3.50281
H         -0.49199       -1.38979        0.69342
N          3.37335       -0.98233       -0.80164
C          2.05880       -1.53643       -1.07320
H          1.28390       -0.84816       -0.72549
H          1.91772       -1.65535       -2.15055
H          1.91419       -2.53032       -0.60054
C          4.42207       -1.76014       -1.43576
H          4.25047       -1.80727       -2.51480
H          5.39203       -1.28399       -1.26477
H          4.47384       -2.79653       -1.04771
C          3.60585       -0.84996        0.62495
H          4.57789       -0.37990        0.80167
H          2.83596       -0.21387        1.07246
H          3.60731       -1.83329        1.14027
