40
2msa1dma1eda_227.log	Energy: -1038021.6552968
S          2.14995       -0.10957       -0.84938
O          2.53929        0.92476        0.14761
O          1.08284        0.32804       -1.76835
O          1.82456       -1.40333       -0.16219
H          0.49296       -2.18567       -0.27222
C          3.60217       -0.43860       -1.82671
H          3.88870        0.48717       -2.32586
H          4.39235       -0.78116       -1.15898
H          3.34848       -1.20782       -2.55617
S         -1.65411       -1.88455       -0.05564
O         -2.73649       -2.79169        0.25019
O         -0.35192       -2.74843       -0.26474
O         -1.35860       -0.81458        0.91835
H         -0.00802       -0.02984        1.60662
C         -1.91278       -1.10898       -1.62896
H         -2.13763       -1.89241       -2.35255
H         -2.74950       -0.41576       -1.50361
H         -0.99543       -0.57291       -1.88759
N          0.73268        0.41519        2.18349
C          1.42372       -0.64845        2.94517
C          0.11397        1.47209        3.00990
H          1.40207        0.81843        1.49308
H          0.70328       -1.14566        3.59608
H          1.83762       -1.35604        2.22673
H          2.22289       -0.20163        3.53849
H         -0.62756        1.01836        3.66934
H          0.88761        1.96369        3.60261
H         -0.35524        2.18071        2.32546
H         -1.72025        1.86472       -1.97375
H         -2.94071        3.11520       -1.79781
H         -0.77339        4.10041       -1.50316
H         -1.59637        4.13443        0.06463
H          0.31503        2.03003       -0.69297
H          0.70246        3.31485        0.21399
H         -2.26334        1.16967        0.29905
H         -3.49142        2.25604        0.33226
C         -2.20407        2.52507       -1.24165
C         -1.13897        3.46735       -0.67823
N         -2.91474        1.69144       -0.28231
N         -0.07075        2.70366       -0.03081
