38
2msa2dma_89.log	Energy: -1003285.4772376
S         -0.39926       -1.59862       -0.31128
O         -0.26446       -1.06051        1.06188
O          0.06322       -0.61203       -1.34157
O         -1.78452       -2.06587       -0.60301
H         -2.86408       -0.90553       -0.02059
C          0.66658       -3.01264       -0.45622
H          1.68950       -2.66839       -0.29203
H          0.36225       -3.73932        0.29711
H          0.54827       -3.42038       -1.46022
S          3.19102        0.39227        0.09781
O          4.34509        1.25635       -0.03942
O          3.30611       -1.03658       -0.16837
O          2.04742        0.99921       -0.82954
H          1.34833        0.30741       -1.03826
C          2.50922        0.59262        1.73114
H          3.24950        0.20965        2.43500
H          2.33751        1.65600        1.89979
H          1.58167        0.01759        1.78356
N         -1.50766        1.82403       -0.48907
C         -0.73410        2.28756        0.66548
C         -1.93205        2.91407       -1.36477
H         -0.92577        1.16879       -1.01632
H         -1.36706        2.91811        1.29962
H         -0.40782        1.41554        1.23700
H          0.15173        2.86438        0.36776
H         -2.63394        3.56300       -0.83048
H         -1.08819        3.52992       -1.70553
H         -2.43824        2.50390       -2.24235
N         -3.32155       -0.04633        0.37348
C         -3.28950       -0.13157        1.84722
C         -4.66091        0.14043       -0.20797
H         -2.66708        0.75499        0.04676
H         -3.94604       -0.93699        2.18269
H         -2.26143       -0.34776        2.14237
H         -3.62209        0.81707        2.27407
H         -5.30239       -0.70236        0.05662
H         -5.09873        1.06582        0.17223
H         -4.56776        0.19880       -1.29308
