44
2msa2tma_40.log	Energy: -1052600.2979761
S         -2.16935       -0.79275       -1.02280
O         -2.74831        0.39831       -1.64484
O         -2.95723       -1.42284        0.04988
O         -0.75872       -0.49918       -0.50212
C         -1.91488       -2.01664       -2.29580
H         -2.89212       -2.26472       -2.71083
H         -1.27166       -1.58921       -3.06579
H         -1.45176       -2.89530       -1.84644
S          2.53526       -1.26714       -0.15244
O          3.68502       -2.05754       -0.53541
O          1.83285       -1.57269        1.09506
O          1.50404       -1.31230       -1.34970
H          0.58500       -1.00674       -1.04514
C          2.99214        0.45331       -0.09149
H          3.69973        0.57015        0.73088
H          3.46695        0.71046       -1.03860
H          2.08730        1.04873        0.07160
N          0.44825        2.73519       -0.41320
C          1.36448        3.82679       -0.12815
H          1.31490        4.08716        0.93456
H          2.39146        3.52439       -0.35832
H          1.13660        4.73633       -0.71500
C          0.52279        2.33761       -1.81459
H          1.54173        2.02541       -2.06184
H         -0.15380        1.49842       -1.98673
H          0.24368        3.16364       -2.49381
C         -0.91976        3.10616       -0.08018
H         -1.59441        2.28025       -0.32287
H         -0.99323        3.34421        0.98806
H         -1.25880        3.99567       -0.64285
N         -0.88843       -0.14744        2.15917
C          0.25940        0.66366        2.63325
H          1.16822        0.07684        2.50617
H          0.31701        1.56365        2.01677
H          0.10594        0.91940        3.68431
C         -2.18206        0.54763        2.38003
H         -2.13799        1.52596        1.90274
H         -2.97271       -0.04573        1.92023
H         -2.34357        0.65987        3.45461
C         -0.90630       -1.51561        2.73814
H         -1.73713       -2.05511        2.28193
H          0.03629       -2.00351        2.49273
H         -1.03838       -1.44122        3.82019
H         -0.77866       -0.27247        1.11518
