35
2msa1ma1dma_52.log	Energy: -978629.6897647
S         -2.57260        0.03184        0.01904
O         -3.97777        0.30662        0.22771
O         -2.27401       -1.41115        0.57200
O         -1.58434        0.97222        0.56800
H          0.01300        0.80703        1.60477
C         -2.24501       -0.12341       -1.72212
H         -2.94366       -0.85521       -2.12803
H         -2.41143        0.85536       -2.17445
H         -1.20917       -0.45138       -1.84146
S          1.31632       -1.66013       -0.03267
O          2.46929       -0.93796        0.55281
O          0.83817       -1.08623       -1.31116
O          0.21189       -1.79359        0.97416
H         -1.27463       -1.57358        0.69697
C          1.86095       -3.32067       -0.38140
H          2.67071       -3.26458       -1.10903
H          2.20668       -3.76782        0.55048
H          1.01537       -3.87600       -0.78758
N          0.96635        1.18995        1.65166
H          1.62199        0.40024        1.72174
C          1.11226        2.19837        2.71327
H          2.10955        2.63629        2.66021
H          0.36393        2.97747        2.56535
H          0.96724        1.73914        3.69158
H          1.13010        1.58600        0.64931
N          1.32169        1.87051       -0.95547
C          2.72761        2.04089       -1.31411
C          0.44568        2.91143       -1.48303
H          1.01669        0.95284       -1.28831
H          3.11810        2.95452       -0.85262
H          3.29039        1.18402       -0.93598
H          2.87909        2.11608       -2.40055
H          0.73568        3.88091       -1.06425
H          0.49194        2.98856       -2.57940
H         -0.58228        2.70083       -1.17795
