40
2msa1dma1eda_204.log	Energy: -1038020.9414232
S         -1.27426       -2.01412       -0.47623
O         -1.53932       -3.42746       -0.23963
O         -0.32809       -1.42665        0.58791
O         -2.44640       -1.12254       -0.57806
H         -0.99801       -0.06759        1.37238
C         -0.36061       -1.85777       -1.99938
H         -0.97095       -2.29976       -2.78795
H         -0.19024       -0.79488       -2.18418
H          0.58179       -2.39782       -1.89913
S          2.62871       -0.00430        0.25181
O          1.91577        0.97774        1.07113
O          2.64809        0.23369       -1.19020
O          2.13092       -1.44962        0.57552
H          1.07469       -1.50573        0.56810
C          4.30662       -0.12745        0.82271
H          4.78125        0.83388        0.62434
H          4.29301       -0.34180        1.89078
H          4.80066       -0.92427        0.26727
N         -1.58571        0.72477        1.71849
C         -0.81463        1.59707        2.62207
C         -2.81827        0.16465        2.30807
H         -1.85149        1.25480        0.82843
H         -0.56168        1.04854        3.53147
H          0.10600        1.89378        2.12063
H         -1.41589        2.47236        2.87814
H         -2.56282       -0.43884        3.18113
H         -3.48043        0.98116        2.60467
H         -3.29447       -0.45995        1.55134
H         -1.91355        3.38298       -2.18621
H         -1.68995        3.90275       -0.50958
H          0.48449        3.63999       -1.55513
H          0.30211        2.39412       -0.31844
H          0.10182        1.95568       -3.19439
H          1.05832        1.20622       -2.08671
H         -3.29832        2.04074       -0.78314
H         -2.06662        1.07508       -1.24139
C         -1.55142        3.06122       -1.19771
C         -0.06768        2.72362       -1.29568
N         -2.29649        1.90504       -0.69109
N          0.14325        1.62648       -2.23532
