37
2msa1ma1eda_399.log	Energy: -1013353.5105749
S         -0.93569       -1.49783        0.00133
O          0.26171       -2.44512       -0.31550
O         -1.33665       -0.73545       -1.18161
O         -0.63823       -0.68992        1.19578
H         -0.14912        1.00891        0.94845
C         -2.19898       -2.66839        0.39780
H         -2.37152       -3.28936       -0.48127
H         -1.85749       -3.26479        1.24338
H         -3.07793       -2.06350        0.65301
S          2.98179       -0.10807       -0.03714
O          2.96582        0.54930        1.28686
O          2.19712        0.65905       -1.04853
O          2.57886       -1.54624        0.00409
H          1.19982       -2.01096       -0.18761
C          4.67016       -0.13180       -0.60107
H          5.02507        0.89760       -0.65177
H          5.25530       -0.70837        0.11538
H          4.69374       -0.60014       -1.58488
N         -4.18137       -0.07677        0.74064
H         -4.89194        0.10123        1.44182
C         -4.74461        0.00642       -0.60474
H         -5.18767        0.98236       -0.85762
H         -3.95688       -0.21461       -1.33143
H         -5.52271       -0.75353       -0.72416
H         -3.45685        0.62882        0.85755
H         -0.47777        3.03064       -1.50391
H         -1.55379        4.12176       -0.62870
H          0.59788        3.87230        0.53989
H         -0.75229        3.26998        1.53657
H          1.01155        1.51057       -0.13375
H          1.23767        1.74630        1.44785
H         -2.94614        2.38541       -1.03259
H         -1.82219        1.21760       -0.85859
C         -1.09064        3.13130       -0.59511
C         -0.17629        3.10564        0.62350
N         -2.13371        2.11693       -0.48977
N          0.49775        1.79330        0.73691
