37
2msa1ma1eda_135.log	Energy: -1013365.8203529
S         -2.45268        1.14157       -0.41033
O         -3.65216        1.96566       -0.47457
O         -2.69212       -0.32965       -0.60927
O         -1.63480        1.33859        0.83763
H         -1.77268       -0.63654        2.19159
C         -1.39387        1.61539       -1.77205
H         -1.95200        1.45530       -2.69504
H         -1.15495        2.67491       -1.66451
H         -0.49017        0.99977       -1.76808
S          1.42116       -1.56014       -0.67185
O          2.54276       -2.49089       -0.69236
O          1.63998       -0.26761       -1.36963
O          0.92337       -1.27901        0.74244
H          1.04438        0.43472        0.90424
C          0.03532       -2.33991       -1.48690
H          0.31850       -2.51212       -2.52579
H         -0.15607       -3.29424       -0.99325
H         -0.83521       -1.68062       -1.43166
N         -1.65840       -1.43086        1.56093
H         -2.16384       -1.11983        0.67858
C         -2.16164       -2.70042        2.11532
H         -2.01895       -3.48552        1.37301
H         -1.61235       -2.95605        3.02160
H         -3.22445       -2.60403        2.33704
H         -0.64433       -1.46982        1.29597
H          2.04916        3.18543        1.47612
H          1.98068        1.83853        2.64423
H          4.26843        2.13896        1.58784
H          3.58471        0.53763        1.29834
H          4.45950        2.19912       -0.65785
H          3.31629        1.03979       -0.92138
H          0.08014        1.77860        0.96232
H          1.26962        1.61183       -0.20211
C          2.13013        2.10298        1.59497
C          3.47412        1.60430        1.05957
N          1.05791        1.47509        0.79338
N          3.54867        1.86585       -0.37370
