44
2msa2tma_75.log	Energy: -1052595.2851795
S         -0.87479        2.62873       -0.03761
O         -1.27159        3.83739       -0.73149
O          0.45591        2.51132        0.54199
O         -1.10849        1.40974       -1.03659
H         -0.44271        0.65621       -0.84805
C         -2.06698        2.29754        1.24580
H         -1.94291        3.07117        2.00480
H         -3.06432        2.35791        0.80866
H         -1.85736        1.30574        1.65156
S          0.24072       -1.24056        0.73571
O          0.40692       -0.58462       -0.60501
O          0.38951       -2.69613        0.67548
O         -1.09465       -0.82051        1.31222
H         -2.16468       -1.21023        0.26203
C          1.47048       -0.54614        1.80548
H          2.45088       -0.73464        1.35057
H          1.28538        0.52858        1.85744
H          1.37287       -1.02140        2.78178
N          4.04871       -0.35839       -0.23002
C          5.46909       -0.28743        0.05552
H          5.65447        0.45688        0.83610
H          5.82773       -1.25735        0.41433
H          6.06562       -0.00694       -0.83500
C          3.75864       -1.37787       -1.22536
H          4.10207       -2.35312       -0.86635
H          2.67954       -1.43111       -1.39091
H          4.25435       -1.17018       -2.19397
C          3.52357        0.93651       -0.63702
H          2.44580        0.86267       -0.79757
H          3.69686        1.67429        0.15204
H          3.99629        1.30620       -1.56710
N         -2.91491       -1.57601       -0.41723
C         -3.86601       -0.46923       -0.66898
H         -4.31696       -0.17120        0.27868
H         -3.31065        0.36927       -1.09245
H         -4.64194       -0.80520       -1.36096
C         -2.22656       -2.00587       -1.66217
H         -1.74089       -1.14069       -2.11112
H         -1.46431       -2.74096       -1.40174
H         -2.96425       -2.43322       -2.34582
C         -3.54156       -2.72292        0.28037
H         -2.76401       -3.45378        0.50533
H         -3.98306       -2.36931        1.21250
H         -4.31016       -3.16462       -0.35824
