37
2msa1ma1eda_98.log	Energy: -1013363.6367831
S         -1.07341        1.85895       -0.07273
O          0.19690        1.75129        0.73792
O         -2.21311        1.26286        0.64846
O         -0.88586        1.32711       -1.43960
C         -1.38291        3.60619       -0.22629
H         -1.49080        4.02207        0.77550
H         -0.53794        4.05809       -0.74586
H         -2.30197        3.73309       -0.79872
S          2.79095       -0.38966       -0.11411
O          2.13457       -1.16565       -1.17303
O          2.61835       -0.87454        1.25047
O          2.42007        1.12518       -0.22753
H          1.47649        1.36859        0.14377
C          4.52095       -0.29413       -0.50040
H          4.90567       -1.31417       -0.48407
H          4.62927        0.14604       -1.49114
H          5.00773        0.31665        0.25920
N         -0.34987       -1.05032        1.85058
H          0.49755       -1.50891        2.17352
C         -1.48456       -1.29065        2.74364
H         -1.29190       -0.99440        3.78211
H         -2.33979       -0.71735        2.37697
H         -1.74391       -2.35408        2.73520
H         -0.13260       -0.05374        1.82435
H         -1.74135       -2.54618       -2.31199
H         -1.18388       -3.46623       -0.88967
H         -3.63191       -3.11546       -0.86461
H         -2.85159       -2.37337        0.53334
H         -4.56469       -1.04125       -0.90064
H         -3.20731       -0.24157       -0.45332
H          0.27356       -1.58502       -1.21563
H         -0.97752       -0.51806       -1.26549
C         -1.62520       -2.52402       -1.22615
C         -2.97680       -2.29398       -0.55821
N         -0.68636       -1.43521       -0.87930
N         -3.55692       -1.03318       -0.99322
H         -0.59801       -1.32296        0.19116
