40
2msa1dma1eda_395.log	Energy: -1038011.8227694
S         -0.98909       -1.48618       -0.26347
O         -1.21853       -0.50711       -1.34331
O         -0.72607       -0.90111        1.05276
O          0.14460       -2.47344       -0.66538
H          1.06507       -1.94292       -0.78896
C         -2.38749       -2.56398       -0.18092
H         -3.24759       -1.93609        0.08909
H         -2.51972       -3.02293       -1.16055
H         -2.18750       -3.31595        0.58242
S          3.08778       -0.59840        0.11216
O          4.50285       -0.80958       -0.14973
O          2.18722       -1.15115       -0.97357
O          2.69857        0.82260        0.37280
H          1.45172        1.26724       -0.56777
C          2.64999       -1.49892        1.59080
H          2.87493       -2.55296        1.42358
H          3.25772       -1.10622        2.40651
H          1.58665       -1.35132        1.78862
N         -4.56951       -0.13282        0.48114
C         -4.48799        0.55193       -0.80244
C         -3.86824        0.57682        1.54287
H         -5.54196       -0.25756        0.74005
H         -3.44828        0.54949       -1.14535
H         -5.08377        0.01443       -1.54519
H         -4.84037        1.59742       -0.76173
H         -2.79293        0.56423        1.33876
H         -4.19095        1.62713        1.65231
H         -4.02411        0.06465        2.49584
H         -1.19359        2.51952       -0.11814
H         -0.22075        1.55350        1.01123
H          0.08967        4.02131        1.44144
H          1.59287        3.24109        0.93236
H         -0.06547        5.00581       -0.70589
H          1.56119        4.98430       -0.52478
H         -0.02026        0.87033       -1.32438
H          0.72825        2.37155       -1.63305
C         -0.17427        2.28443        0.20238
C          0.59559        3.53933        0.59527
N          0.53448        1.64949       -0.93373
N          0.73725        4.39876       -0.58197
