38
2msa2dma_202.log	Energy: -1003273.5551601
S          1.43296        1.93482        0.17394
O          2.39643        1.67459       -0.89430
O          1.63209        1.19244        1.41891
O         -0.03516        1.75112       -0.34336
H         -0.24616        0.73813       -0.47962
C          1.40614        3.67589        0.52102
H          2.39609        3.93816        0.89533
H          1.18899        4.20740       -0.40504
H          0.64315        3.86558        1.27527
S         -0.86313       -1.67560        0.34573
O         -2.06833       -2.39276       -0.05502
O         -0.38867       -0.68711       -0.69743
O          0.29157       -2.56502        0.70688
H          1.57690       -2.27024       -0.05574
C         -1.23047       -0.71540        1.79780
H         -2.02721       -0.02076        1.51352
H         -1.55874       -1.40800        2.57338
H         -0.32467       -0.18516        2.09765
N          2.54521       -2.18444       -0.52575
C          3.46481       -1.50170        0.41704
C          2.42318       -1.51567       -1.84639
H          2.85093       -3.14691       -0.66413
H          3.04916       -0.52148        0.65122
H          3.53064       -2.09484        1.32940
H          4.44881       -1.39444       -0.04280
H          2.19415       -0.46348       -1.68160
H          3.36882       -1.61091       -2.38387
H          1.61056       -1.98539       -2.39936
N         -3.35721        0.62518       -0.37087
C         -3.52234        1.96127       -0.91369
C         -4.61571       -0.06569       -0.14467
H         -2.77553        0.06761       -0.98851
H         -4.05136        2.58697       -0.18544
H         -2.54084        2.40933       -1.09084
H         -4.09893        1.98807       -1.85599
H         -5.16732        0.43348        0.66092
H         -5.26999       -0.08986       -1.03449
H         -4.40775       -1.09413        0.16036
