37
2msa1ma1eda_391.log	Energy: -1013354.5700933
S          1.78113       -1.55482        0.18129
O          2.33758       -0.62338        1.19874
O          2.11462       -1.21785       -1.20792
O          0.30004       -1.74020        0.40235
C          2.49648       -3.15173        0.52267
H          3.57617       -3.06154        0.40116
H          2.24457       -3.43377        1.54483
H          2.08758       -3.86593       -0.19215
S         -2.77281       -0.26819       -0.32675
O         -3.14547        0.96712       -0.99584
O         -2.50333       -0.21659        1.11350
O         -1.55605       -0.90633       -1.08239
H         -0.78968       -1.25518       -0.48333
C         -4.05574       -1.46912       -0.60150
H         -4.96579       -1.08356       -0.14089
H         -4.18769       -1.58717       -1.67681
H         -3.75227       -2.40750       -0.13781
N          2.28022        1.71692       -1.92839
H          2.12493        0.70990       -1.98151
C          3.42233        1.96168       -1.04473
H          4.37325        1.56212       -1.42374
H          3.54422        3.03758       -0.88009
H          3.22999        1.47984       -0.08191
H          2.47980        2.04534       -2.86730
H         -1.28734        2.32477        2.21528
H          0.34104        2.52883        2.90959
H         -0.26790        4.01487        0.80610
H          1.27108        3.14816        0.73991
H         -1.11508        2.44851       -0.78735
H          0.53660        2.20831       -1.12949
H         -0.65846        0.14729        2.06553
H         -0.09788        0.81805        0.65463
C         -0.21721        2.22206        2.02428
C          0.18415        3.01856        0.75484
N          0.03479        0.80266        1.70463
N         -0.19672        2.24571       -0.41097
H          0.99268        0.44134        1.85506
