37
2msa1ma1eda_259.log	Energy: -1013360.7221333
S          2.35900       -0.22505        0.34749
O          3.38449        0.81655        0.37002
O          1.63499       -0.29006       -0.97462
O          1.36384       -0.14517        1.45782
C          3.16892       -1.80465        0.52892
H          3.90008       -1.90050       -0.27396
H          3.66107       -1.82150        1.50151
H          2.41858       -2.59336        0.45953
S         -1.39973       -2.04159       -0.38660
O         -2.36713       -2.98454       -0.90741
O         -1.81280       -0.64842       -0.18335
O         -0.13875       -2.08420       -1.32772
H          0.52929       -1.32485       -1.16739
C         -0.77045       -2.64124        1.16805
H         -1.61103       -2.68637        1.86204
H         -0.36186       -3.63881        1.00468
H         -0.01069       -1.93877        1.52170
N         -3.22341        1.49469        1.25639
H         -3.21684        0.48747        1.10831
C         -3.90576        2.14960        0.13461
H         -4.95267        1.84643        0.01510
H         -3.87195        3.23410        0.27017
H         -3.37702        1.90370       -0.79017
H         -3.69921        1.68245        2.13220
H         -0.81249        3.74909        0.10082
H          0.40760        3.42837        1.35798
H          1.35678        4.16043       -0.91208
H          2.01637        2.64346       -0.30108
H          0.65276        2.98314       -2.71300
H          1.13939        1.55625       -2.03195
H         -1.46165        1.69606        0.97725
H         -0.63801        1.35412       -0.43092
C          0.02210        3.10373        0.38907
C          1.10990        3.11721       -0.69188
N         -0.51498        1.73193        0.51875
N          0.62092        2.41659       -1.87715
H          0.14010        1.08167        0.99864
