35
2msa1ma1dma_112.log	Energy: -978627.5859513
S          2.50945       -0.21388       -0.04254
O          3.91982       -0.05316       -0.31658
O          1.95702       -1.32709       -1.00819
O          1.64870        0.97846       -0.13902
H          0.09266        1.44255       -0.73354
C          2.27577       -0.90654        1.57663
H          2.87061       -1.81814        1.63506
H          2.62927       -0.16725        2.29665
H          1.21042       -1.11540        1.70942
S         -1.55691       -1.37081       -0.02438
O         -2.43771       -0.17055       -0.10934
O         -0.90453       -1.53992        1.28070
O         -0.58493       -1.37584       -1.17070
H          0.93858       -1.36493       -1.02203
C         -2.61633       -2.77768       -0.29267
H         -3.35979       -2.79383        0.50432
H         -3.09369       -2.66698       -1.26604
H         -1.99854       -3.67540       -0.26237
N         -1.69972        1.92810        2.05543
H         -2.36159        2.26063        2.74844
C         -0.41986        1.60411        2.68714
H         -0.47510        0.80216        3.43606
H          0.29061        1.29488        1.91601
H         -0.01341        2.50023        3.16613
H         -2.10415        1.09209        1.63790
N         -0.78187        1.77205       -1.18471
C         -0.67995        1.47900       -2.63155
C         -0.99658        3.19852       -0.85277
H         -1.53277        1.17821       -0.76960
H          0.17901        2.01086       -3.04288
H         -0.55224        0.40290       -2.74747
H         -1.59600        1.80582       -3.12577
H         -0.12150        3.76990       -1.16635
H         -1.88305        3.55419       -1.38095
H         -1.15420        3.26183        0.22720
