37
2msa1ma1eda_528.log	Energy: -1013348.8279235
S          2.80756        0.29815       -0.43534
O          1.93772        1.46350       -0.62727
O          2.56421       -0.83078       -1.36947
O          2.77427       -0.20706        0.99440
H          1.99939       -1.64510        0.94128
C          4.48564        0.83939       -0.69645
H          4.55805        1.21441       -1.71767
H          4.69949        1.63274        0.01984
H          5.15326       -0.00909       -0.54782
S         -2.21981        1.59475       -0.08122
O         -3.50233        2.26948       -0.10736
O         -2.18534        0.14264       -0.30207
O         -1.52670        1.90233        1.29795
H         -0.84431        1.16496        1.58680
C         -1.12845        2.34842       -1.26341
H         -1.54561        2.15594       -2.25270
H         -1.10545        3.41906       -1.05924
H         -0.13200        1.91207       -1.15742
N         -2.94165       -2.77187       -0.38057
H         -3.79020       -3.26684       -0.12803
C         -2.67038       -2.92280       -1.81020
H         -3.47584       -2.56667       -2.46714
H         -1.76924       -2.35540       -2.06291
H         -2.48057       -3.97594       -2.04015
H         -3.09030       -1.78565       -0.17527
H         -0.07778       -1.99490        2.74612
H         -1.51780       -1.25032        2.04448
H         -0.78864       -2.56880        0.30212
H         -0.13285       -0.98672       -0.13203
H          1.39278       -3.25786        0.98408
H          1.63398       -2.38665       -0.44090
H          0.05719        0.29135        3.22201
H          1.05668        0.18524        1.92119
C         -0.42669       -1.27980        1.98586
C         -0.07679       -1.79381        0.59954
N          0.08475        0.07899        2.22871
N          1.31421       -2.34733        0.53711
