37
2msa1ma1eda_404.log	Energy: -1013354.8078441
S          2.30491        0.16601       -0.46661
O          2.25649        1.30097        0.50242
O          1.46210        0.35749       -1.65630
O          2.02276       -1.12311        0.24928
H          0.83684       -2.11329       -0.13001
C          3.99305        0.05942       -1.02471
H          4.24448        1.00313       -1.50904
H          4.63360       -0.11675       -0.16087
H          4.05926       -0.76603       -1.73364
S         -1.32610       -2.01591       -0.05560
O         -2.33899       -3.03881        0.07225
O          0.06180       -2.74341       -0.27253
O         -1.17569       -1.05910        1.06031
H          0.07231       -0.33543        1.87710
C         -1.56582       -1.07443       -1.53667
H         -1.77279       -1.77994       -2.34145
H         -2.40438       -0.39296       -1.35388
H         -0.65178       -0.50740       -1.73287
N          0.71132        0.25471        2.45786
H          1.33552       -0.37932        2.95310
C         -0.06977        1.11735        3.36786
H          0.60333        1.73775        3.95936
H         -0.71558        1.75089        2.76070
H         -0.68388        0.49649        4.01976
H          1.30654        0.79497        1.77614
H         -2.74693        3.60215       -0.01116
H         -2.86305        2.19450        1.05955
H         -0.50414        2.81925        0.64070
H         -0.88097        1.19423        0.04760
H         -0.44972        3.56108       -1.59192
H          0.18789        2.05058       -1.72872
H         -4.29506        1.97044       -0.90731
H         -2.94761        1.99213       -1.85417
C         -2.56024        2.51579        0.05539
C         -1.06590        2.25844       -0.12534
N         -3.30704        1.74549       -0.93464
N         -0.65006        2.57271       -1.48695
