35
2msa1a1tma_29.log	Energy: -978626.7273050
S          1.37324       -1.62342       -0.23839
O          2.36979       -2.25971        0.62358
O          1.87945       -0.98964       -1.46677
O          0.55506       -0.58827        0.54980
C          0.17042       -2.84852       -0.71933
H          0.68293       -3.58056       -1.34407
H         -0.21968       -3.32250        0.18201
H         -0.62670       -2.34803       -1.27218
S         -2.61276        0.12008        0.06241
O         -2.48893       -0.55808       -1.22123
O         -2.21602        1.52786        0.11562
O         -1.86636       -0.69145        1.19015
H         -0.85846       -0.71679        0.97336
C         -4.27818       -0.03099        0.66079
H         -4.91508        0.50187       -0.04586
H         -4.53746       -1.08868        0.69434
H         -4.33397        0.42268        1.64972
N          2.68943        0.52503        2.34423
H          3.17340        0.65248        3.22744
H          3.06849       -0.31570        1.90982
H          1.72538        0.28170        2.55426
N          1.27070        1.87045       -0.44401
C          0.52986        1.92911       -1.73071
H          0.85749        1.08824       -2.34204
H         -0.53661        1.84600       -1.52109
H          0.75110        2.88033       -2.22058
C          0.78784        2.87971        0.52992
H         -0.27838        2.71646        0.69168
H          1.34495        2.74197        1.45738
H          0.96291        3.87774        0.12132
C          2.74002        1.95349       -0.64651
H          3.21466        1.82404        0.32736
H          3.03353        1.14267       -1.31314
H          2.97679        2.92728       -1.08211
H          1.06262        0.93146       -0.02760
