44
2msa2tma_17.log	Energy: -1052602.5662095
S         -2.93885       -0.48335        0.42713
O         -2.94436        0.71801        1.26659
O         -2.58507       -1.75060        1.08909
O         -2.06310       -0.29572       -0.81051
C         -4.58562       -0.67183       -0.23503
H         -5.26330       -0.83551        0.60338
H         -4.84724        0.24396       -0.76542
H         -4.59398       -1.52755       -0.91011
S          0.15300        2.26641       -0.30710
O          1.08090        3.20307       -0.91161
O          0.67926        0.99443        0.19602
O         -0.97523        1.95968       -1.37063
H         -1.46290        1.10024       -1.13574
C         -0.73003        3.06066        1.01328
H         -0.00189        3.29589        1.79049
H         -1.17702        3.97127        0.61438
H         -1.49222        2.36390        1.37151
N          3.74014       -0.55471        0.35825
C          3.55702        0.05232        1.66596
H          2.74258        0.77962        1.61599
H          3.29074       -0.71661        2.39932
H          4.46990        0.56427        2.02563
C          4.77056       -1.57503        0.38946
H          4.50956       -2.34634        1.12147
H          4.85675       -2.04974       -0.59362
H          5.76491       -1.16952        0.65968
C          4.02538        0.45651       -0.64733
H          4.10156       -0.01347       -1.63399
H          3.21679        1.19172       -0.67394
H          4.97535        0.98892       -0.45157
N          0.10968       -1.95820       -0.55095
C         -0.60522       -3.20007       -0.93479
H         -1.39688       -3.37174       -0.20541
H         -1.04186       -3.06014       -1.92426
H          0.10671       -4.02817       -0.94933
C          1.14942       -1.58393       -1.54141
H          0.67008       -1.45084       -2.51236
H          1.61547       -0.65897       -1.20911
H          1.89648       -2.37892       -1.58770
C          0.65502       -2.04883        0.82935
H          1.14239       -1.10493        1.06054
H         -0.18127       -2.22955        1.50510
H          1.38190       -2.86333        0.86304
H         -0.61611       -1.20274       -0.55816
