25
2msa1ma_09.log	Energy: -893811.5957690
S          2.24961       -0.30142       -0.06527
O          1.78279        0.42042        1.13502
O          2.57523        0.53105       -1.21440
O          1.24348       -1.43447       -0.43346
H          0.27431       -1.06131       -0.56022
C          3.65518       -1.27934        0.39621
H          3.36875       -1.92445        1.22602
H          3.96105       -1.86294       -0.47177
H          4.44111       -0.58429        0.69237
S         -2.18336       -0.50393        0.12024
O         -2.05477       -1.57183        1.10428
O         -0.97985       -0.37443       -0.78862
O         -2.50877        0.84489        0.67805
H         -1.18127        1.74782        0.79341
C         -3.53695       -0.90622       -0.96710
H         -3.32813       -1.87514       -1.42085
H         -4.44410       -0.95256       -0.36403
H         -3.61668       -0.12984       -1.72763
N         -0.25069        2.25672        0.72753
H         -0.22958        3.01596        1.40422
C         -0.03982        2.73654       -0.66062
H          0.95772        3.16418       -0.75481
H         -0.13381        1.87355       -1.31896
H         -0.80288        3.47589       -0.90301
H          0.49317        1.57060        0.97506
