40
2msa1dma1eda_52.log	Energy: -1038035.9273597
S         -2.80072        0.84942       -0.06299
O         -2.13510        2.02875        0.55930
O         -3.45006       -0.06693        0.88654
O         -1.84234        0.14208       -0.97460
C         -4.07945        1.50884       -1.11892
H         -3.61738        2.16848       -1.85344
H         -4.57979        0.67415       -1.61019
H         -4.77964        2.06176       -0.49224
S          2.20438       -1.20835       -0.23743
O          1.48207       -2.42597       -0.69462
O          1.83440       -0.79856        1.13654
O          2.09625       -0.07015       -1.19401
C          3.92967       -1.66687       -0.21274
H          4.05214       -2.49190        0.48914
H          4.21558       -1.97079       -1.21986
H          4.51124       -0.80178        0.10838
N         -1.12752       -2.24149        0.12980
C         -1.09976       -2.16043        1.60877
C         -2.13700       -3.17528       -0.40346
H         -1.34641       -1.29307       -0.26252
H         -0.95548       -3.16282        2.01669
H         -0.25762       -1.52742        1.89168
H         -2.04164       -1.72797        1.94856
H         -1.93747       -4.18172       -0.03157
H         -3.12298       -2.83963       -0.07769
H         -2.08409       -3.16431       -1.49229
H         -0.16953       -2.46575       -0.22011
H          0.94880        3.40440        1.35445
H          1.10553        1.70368        1.87023
H          3.30853        3.09629        1.43594
H          3.20878        1.43030        0.86002
H          3.80414        3.53949       -0.71820
H          3.13089        2.14731       -1.27698
H         -0.49806        1.98068        0.09055
H          0.72404        2.65981       -0.87136
C          1.31193        2.41417        1.06932
C          2.80521        2.43773        0.72274
N          0.52790        1.99743       -0.11754
N          3.00043        2.93059       -0.64241
H          0.85090        1.07520       -0.46895
