40
2msa1dma1eda_490.log	Energy: -1038008.9955882
S         -0.44621       -1.83565       -0.17849
O         -0.24959       -1.20235        1.13898
O         -0.32816       -0.86242       -1.30860
O         -1.75623       -2.56757       -0.26943
H         -2.94622       -1.64174       -0.47901
C          0.81425       -3.05837       -0.41724
H          1.78409       -2.54365       -0.36810
H          0.71286       -3.79735        0.37837
H          0.65441       -3.51571       -1.39391
S          0.91578        2.32736       -0.22748
O          0.73941        3.75923       -0.36722
O          2.13034        1.68893       -0.71469
O         -0.34446        1.65370       -0.93111
H         -0.23618        0.65090       -1.08101
C          0.69493        1.87566        1.48102
H          1.58450        2.20849        2.01749
H         -0.19105        2.38954        1.85543
H          0.57574        0.79090        1.54097
N          3.36247       -1.05203        0.03109
C          4.73186       -1.07657       -0.45637
C          3.28424       -0.96129        1.48005
H          2.88480       -0.24927       -0.37158
H          5.22788       -1.99249       -0.11480
H          4.73240       -1.07978       -1.54954
H          5.33448       -0.21754       -0.11312
H          3.75457       -1.84425        1.92852
H          3.78756       -0.06838        1.89197
H          2.23461       -0.95044        1.78807
H         -5.00346       -0.06501        0.99452
H         -3.68550       -1.09162        1.62719
H         -3.21961        1.42289        1.81108
H         -1.99562        0.50765        0.92853
H         -3.88931        2.38719       -0.22086
H         -2.34446        2.00592       -0.67357
H         -4.62664       -1.52551       -0.75932
H         -3.66347       -0.19499       -1.12531
C         -3.95919       -0.36097        0.86449
C         -3.03076        0.86010        0.88951
N         -3.81081       -0.98974       -0.47556
N         -3.22622        1.63027       -0.33390
