32
2msa2ma_223.log	Energy: -953949.1099198
S          2.13876        0.11606        0.34294
O          1.48624        0.13672       -0.96182
O          2.76207        1.35787        0.80582
O          3.22441       -1.03010        0.37796
H          4.18155       -0.60234        0.28713
C          0.98130       -0.46354        1.55393
H          0.15226        0.24611        1.57055
H          0.61220       -1.44305        1.24689
H          1.48768       -0.50866        2.51750
S         -2.28266       -0.81067       -0.15561
O         -1.73610       -2.03826        0.39793
O         -2.13123        0.42821        0.61691
O         -3.81557       -1.00846       -0.46697
H         -4.37866       -0.22416       -0.04068
C         -1.58668       -0.56739       -1.77111
H         -0.51320       -0.40988       -1.63527
H         -1.78339       -1.46295       -2.36055
H         -2.05364        0.30901       -2.22016
N          5.47365        0.21798        0.11729
H          5.32104        0.97171        0.78346
C          5.52161        0.75758       -1.25016
H          6.33307        1.47794       -1.39849
H          5.64114       -0.06605       -1.95688
H          4.56993        1.25054       -1.45890
H          6.34180       -0.24766        0.36200
N         -5.06570        0.98740        0.58561
H         -6.04502        0.85596        0.81935
C         -4.87423        2.15845       -0.28250
H         -5.27028        3.08297        0.15057
H         -3.80361        2.28074       -0.45709
H         -5.36619        1.97759       -1.24075
H         -4.55065        1.10986        1.45406
