37
2msa1ma1eda_570.log	Energy: -1013344.6572007
S          1.45962       -1.75663       -0.47477
O          2.17613       -2.62960       -1.39315
O          0.71590       -0.64931       -1.18768
O          2.33626       -1.14648        0.58853
H          2.50785        0.31575        0.69520
C          0.22976       -2.69118        0.40205
H         -0.49817       -3.04757       -0.32696
H          0.74204       -3.52513        0.88376
H         -0.24957       -2.03988        1.14236
S         -2.63438        0.14074       -0.34819
O         -3.20879        0.68294        0.87596
O         -2.59695       -1.29787       -0.54699
O         -1.18007        0.74231       -0.49770
H         -0.43680        0.04278       -0.75548
C         -3.47632        0.89029       -1.72786
H         -4.51596        0.56342       -1.68576
H         -3.41132        1.97344       -1.62717
H         -3.00152        0.54731       -2.64701
N         -1.02517       -0.56494        2.74659
H         -1.95220       -0.24246        2.48232
C         -0.08923        0.55064        2.78595
H         -0.29045        1.29966        3.56757
H          0.92548        0.16170        2.93089
H         -0.12764        1.06004        1.81818
H         -1.09532       -1.01816        3.65047
H          3.66218        2.95941       -0.18881
H          3.73644        1.38284       -1.02063
H          2.01758        3.03390       -2.00614
H          1.37814        1.44814       -1.54720
H          0.79632        3.97197       -0.26307
H         -0.07631        2.56589       -0.30005
H          3.47588        1.43083        1.54243
H          1.89790        1.87056        1.17272
C          3.10538        2.04951       -0.43026
C          1.79380        2.37976       -1.15670
N          2.74236        1.37411        0.84067
N          0.85300        2.96367       -0.20171
