32
2msa2ma_106.log	Energy: -953961.2411399
S          2.60053        0.24508        0.06450
O          3.69944        1.17899       -0.07473
O          2.70584       -1.10656       -0.46633
O          1.31804        0.94561       -0.56983
H          0.59418        0.26796       -0.83619
C          2.15952        0.12565        1.78694
H          2.98467       -0.37804        2.29235
H          2.03495        1.13532        2.17976
H          1.23649       -0.45447        1.85779
S         -1.08858       -1.60334       -0.24114
O         -0.62830       -0.54180       -1.20086
O         -2.49209       -1.96735       -0.44169
O         -0.78308       -1.16527        1.16530
H         -1.59717        0.24553        1.42433
C         -0.06810       -3.02768       -0.54236
H         -0.27051       -3.36457       -1.55927
H          0.97567       -2.72677       -0.43520
H         -0.34229       -3.79575        0.18097
N         -2.16091        1.14149        1.43731
H         -2.21007        1.48211        2.39482
C         -3.51306        0.89217        0.88055
H         -4.05394        1.83636        0.80588
H         -3.39728        0.43805       -0.10325
H         -4.05236        0.19324        1.51904
H         -1.64142        1.86845        0.83332
N         -0.89567        2.88788       -0.29005
H         -0.85329        3.88300       -0.09155
C         -1.53112        2.65289       -1.59977
H         -1.01453        3.15810       -2.42295
H         -1.53087        1.57807       -1.79703
H         -2.56650        3.00404       -1.57007
H          0.06678        2.54882       -0.32414
