43
2msa1eda1tma_03.log	Energy: -1062692.3803566
S          2.77525       -0.93142       -0.24722
O          2.07409       -0.16111       -1.33155
O          2.55077       -2.38136       -0.34877
O          2.47042       -0.35738        1.08634
C          4.51854       -0.65817       -0.53768
H          4.76259       -1.04212       -1.52836
H          4.71919        0.41225       -0.47953
H          5.07619       -1.19511        0.23023
S         -2.92078        0.67783       -0.31762
O         -3.44960       -0.50627       -1.01433
O         -2.23434        1.66271       -1.19278
O         -2.04671        0.29741        0.84510
C         -4.31245        1.54070        0.39125
H         -4.96574        1.84996       -0.42502
H         -4.83408        0.85752        1.06156
H         -3.94077        2.40874        0.93575
H         -0.27874        2.78825        1.07523
H          0.50264        1.20849        1.30544
H          1.96643        3.05991        2.14805
H          2.70278        2.14555        0.83452
H          1.53198        4.82941        0.60753
H          2.99631        4.30695        0.10088
H         -0.51797        1.75178       -0.95522
H          0.83094        2.75051       -1.14320
C          0.57136        2.16366        0.78759
C          1.90059        2.84869        1.07321
N          0.47168        1.91338       -0.67156
N          2.02873        4.03377        0.22099
H          1.07636        1.09348       -0.94727
N         -1.18078       -2.22738        0.47756
C         -0.13686       -2.50177        1.49850
H          0.64601       -1.74515        1.43155
H         -0.60643       -2.47228        2.48289
H          0.30337       -3.48216        1.31014
C         -2.35949       -3.11277        0.62288
H         -2.75114       -3.01669        1.63647
H         -3.11540       -2.78941       -0.09326
H         -2.05730       -4.14547        0.43498
C         -0.64810       -2.26716       -0.91207
H         -1.46881       -2.03150       -1.58993
H          0.15030       -1.53337       -1.01486
H         -0.23595       -3.25866       -1.10567
H         -1.52032       -1.24274        0.64144
