43
2msa1eda1tma_43.log	Energy: -1062690.6227590
S          2.90373       -0.79755        0.16902
O          2.19353       -1.90879        0.82079
O          3.41367        0.26172        1.05513
O          2.04267       -0.19783       -0.93472
C          4.31120       -1.49503       -0.67789
H          4.96071       -1.94250        0.07500
H          3.95656       -2.25170       -1.37776
H          4.83017       -0.69385       -1.20424
S         -2.75930        0.91324        0.07274
O         -2.60630        2.32922        0.43102
O         -2.32219       -0.03666        1.13714
O         -2.09244        0.56647       -1.22767
C         -4.49923        0.60744       -0.18618
H         -5.01993        0.79794        0.75276
H         -4.85010        1.28608       -0.96384
H         -4.62226       -0.43069       -0.49860
H         -0.85655       -3.12273       -1.69767
H          0.43772       -3.36188       -0.48260
H         -1.64634       -4.56556        0.12161
H         -1.16139       -3.37921        1.33463
H         -3.59934       -3.44658        0.54548
H         -2.89876       -1.96525        0.60392
H         -1.18054       -0.90177       -0.95751
H         -0.46429       -1.19811        0.47896
C         -0.54821       -2.93117       -0.66801
C         -1.56620       -3.49166        0.31547
N         -0.41925       -1.46002       -0.51021
N         -2.87331       -2.87150        0.13506
H          0.48879       -1.09669       -0.85672
N          1.27039        2.29400       -0.12338
C          0.65005        2.05110        1.20839
H         -0.20522        1.38627        1.09603
H          1.40509        1.59834        1.85146
H          0.29727        3.00104        1.61323
C          2.48883        3.13008        0.00225
H          3.18761        2.61126        0.65885
H          2.93474        3.25421       -0.98538
H          2.21060        4.10373        0.41127
C          0.30041        2.84904       -1.10450
H          0.82445        3.02303       -2.04539
H         -0.51272        2.13544       -1.24830
H         -0.10648        3.78272       -0.71279
H          1.58189        1.35617       -0.48179
