35
2msa1a1tma_74.log	Energy: -978615.8635976
S         -3.56046        0.15673        0.28578
O         -3.62902       -0.42217        1.62096
O         -2.55181       -0.50272       -0.62198
O         -3.33309        1.63990        0.24690
H         -1.89258        1.94659       -0.21860
C         -5.13371       -0.09707       -0.51211
H         -5.32302       -1.17013       -0.54549
H         -5.89316        0.40861        0.08473
H         -5.08722        0.32164       -1.51707
S          0.67409       -0.88141       -0.26586
O          0.72319        0.10961        0.82504
O          0.64511       -0.29319       -1.60859
O         -0.52681       -1.85943       -0.06151
H         -1.42470       -1.36248       -0.22251
C          2.03526       -1.99304       -0.10281
H          2.94436       -1.37849       -0.16560
H          1.95403       -2.47731        0.87047
H          1.97538       -2.72103       -0.91152
N         -0.86164        2.03482       -0.52566
H         -0.26006        1.61730        0.20356
H         -0.60127        2.99960       -0.70709
H         -0.70567        1.45450       -1.35655
N          4.35710        0.30233        0.14336
C          3.82345        1.41008       -0.63193
H          3.93582        1.20496       -1.70037
H          2.75727        1.52455       -0.41775
H          4.33270        2.36605       -0.40422
C          4.13689        0.50491        1.56751
H          3.06557        0.60832        1.76112
H          4.50578       -0.36218        2.12410
H          4.65526        1.40453        1.94902
C          5.76223        0.08032       -0.15072
H          6.12363       -0.79326        0.39991
H          5.89319       -0.11073       -1.21989
H          6.39312        0.94678        0.12496
