38
2msa2dma_123.log	Energy: -1003281.9532762
S          1.97813       -1.07276       -0.85301
O          2.25833       -2.13009       -1.80728
O          1.14658       -1.44468        0.30948
O          1.36981        0.19222       -1.55433
H          0.34730        0.16664       -1.67248
C          3.47703       -0.36828       -0.22897
H          4.01067       -1.16867        0.28491
H          4.05495       -0.00122       -1.07729
H          3.17740        0.43686        0.45332
S         -2.04669        0.71644       -0.79875
O         -1.13027        0.21010       -1.86726
O         -1.31873        1.33631        0.32628
O         -2.99639       -0.34227       -0.35153
H         -2.09412       -1.35257        0.63728
C         -3.03892        1.97483       -1.57373
H         -3.55970        1.52319       -2.41789
H         -3.74653        2.35101       -0.83495
H         -2.36992        2.76682       -1.91054
N          1.58339        1.86240        1.21806
C          1.86583        3.07511        0.46649
C          1.31993        2.12622        2.62193
H          0.75641        1.43058        0.81117
H          2.79811        3.52550        0.82752
H          1.99435        2.82301       -0.58972
H          1.06926        3.83471        0.54761
H          2.21676        2.54216        3.09538
H          0.49062        2.83622        2.78743
H          1.07977        1.18839        3.13249
N         -1.36742       -1.79806        1.25282
C         -1.59484       -3.25183        1.36454
C         -1.34025       -1.07149        2.54147
H         -0.45640       -1.63541        0.77456
H         -2.56223       -3.43076        1.83613
H         -1.58462       -3.68590        0.36491
H         -0.79844       -3.69611        1.96335
H         -2.28782       -1.22697        3.05969
H         -0.51217       -1.44470        3.14604
H         -1.20579       -0.01198        2.31995
