35
2msa1a1tma_64.log	Energy: -978616.3811485
S          1.35898        0.98400        0.18133
O          0.78127        1.17459        1.51479
O          1.18648       -0.38129       -0.38190
O          2.82832        1.36666        0.12048
H          3.63637        0.16229        0.01149
C          0.54894        2.11745       -0.92793
H         -0.51240        1.86023       -0.95748
H          0.69436        3.12631       -0.54083
H          0.99904        2.01176       -1.91520
S         -3.10553       -0.14575       -0.17496
O         -2.61364        0.98334       -0.94813
O         -3.67886       -1.28460       -0.89724
O         -4.18863        0.36817        0.87139
H         -5.10355       -0.02489        0.64215
C         -1.82055       -0.71139        0.90392
H         -0.98911       -1.04032        0.27610
H         -1.48316        0.12414        1.51898
H         -2.21720       -1.52589        1.50940
N         -6.44467       -0.79201        0.08028
H         -6.99137       -1.34651        0.73006
H         -5.97042       -1.41781       -0.56903
H         -7.07846       -0.20288       -0.44941
N          4.25138       -0.75004       -0.06486
C          4.02102       -1.30400       -1.41827
H          2.94679       -1.45257       -1.53649
H          4.36848       -0.57970       -2.15623
H          4.56721       -2.24475       -1.53044
C          5.65569       -0.35045        0.15082
H          5.93796        0.37682       -0.61130
H          5.74432        0.11197        1.13459
H          6.30733       -1.22649        0.08982
C          3.76226       -1.66953        0.98881
H          3.87820       -1.18278        1.95811
H          2.70302       -1.85424        0.80603
H          4.33652       -2.59975        0.96067
