38
2msa1ma1tma_59.log	Energy: -1003281.0085858
S         -1.70817        1.64189       -0.21749
O         -3.07911        1.30670       -0.70603
O         -0.67832        1.67348       -1.25950
O         -1.35372        0.73872        0.93400
H         -0.23597       -0.31393        0.92958
C         -1.82551        3.27607        0.48099
H         -2.11037        3.96142       -0.31749
H         -2.57852        3.26385        1.26843
H         -0.84673        3.53888        0.88306
S          0.51775       -1.98729       -0.25458
O          1.39749       -3.08911        0.06657
O          0.47239       -1.03922        1.00820
O         -0.87079       -2.31387       -0.64149
H         -2.40025       -1.67936       -0.37675
C          1.21894       -0.97693       -1.52760
H          2.18091       -0.60181       -1.15459
H          1.33468       -1.61152       -2.40733
H          0.53544       -0.14480       -1.71645
N         -3.36004       -1.31297       -0.18647
H         -3.35080       -0.29085       -0.46148
C         -3.67881       -1.45442        1.25392
H         -4.69012       -1.09197        1.43740
H         -3.58955       -2.50066        1.54535
H         -2.96185       -0.84523        1.80330
H         -4.01683       -1.81823       -0.77692
N          3.48249        0.69105        0.10654
C          3.84383       -0.06671        1.29375
H          2.94696       -0.51185        1.73149
H          4.52807       -0.87553        1.02135
H          4.33727        0.56354        2.05864
C          4.65287        1.23711       -0.55475
H          5.33569        0.42813       -0.83167
H          4.35341        1.76014       -1.46819
H          5.20696        1.95078        0.08547
C          2.51494        1.73135        0.41477
H          2.18660        2.22224       -0.50591
H          1.63573        1.28590        0.88647
H          2.92792        2.49817        1.09848
