30
2msa1eda_164.log	Energy: -953182.0370801
S          0.54899        1.96212        0.00860
O         -0.58510        2.71377       -0.48106
O          0.37383        1.07716        1.16753
O          1.66737        3.04315        0.44368
H          2.21183        2.66317        1.14921
C          1.34106        1.08097       -1.30025
H          0.62394        0.33155       -1.64022
H          1.57532        1.80072       -2.08482
H          2.23608        0.59592       -0.89177
S         -2.36605       -0.81724       -0.01176
O         -3.22814       -1.97182        0.09301
O         -1.23727       -0.83070       -0.94158
O         -1.80440       -0.52684        1.45454
H         -0.99870        0.04143        1.40250
C         -3.33951        0.63099       -0.35681
H         -3.78947        0.48454       -1.33957
H         -4.10880        0.71140        0.41089
H         -2.68012        1.50111       -0.36016
H          3.65169       -2.93971        0.59943
H          3.33731       -1.60930        1.72331
H          1.26485       -2.82490        1.19162
H          1.18538       -1.14450        0.66009
H          1.54260       -3.45631       -1.08320
H          0.43118       -2.25411       -1.15785
H          4.72619       -0.89847       -0.13468
H          3.52184       -1.29014       -1.17743
C          3.16859       -1.95272        0.69703
C          1.66869       -2.10489        0.46397
N          3.71869       -0.96382       -0.23336
N          1.39821       -2.46391       -0.92798
