35
2msa1ma1dma_85.log	Energy: -978626.9389452
S         -1.97949       -1.25116        0.03883
O         -3.31632       -1.18217       -0.52360
O         -1.59370       -0.23952        1.02249
O         -0.96083       -1.19804       -1.17028
C         -1.68692       -2.85654        0.74642
H         -2.33199       -2.94369        1.62116
H         -1.93977       -3.60868       -0.00056
H         -0.63320       -2.91149        1.02584
S          2.19265       -0.65155       -0.03442
O          2.20990       -0.23705        1.37794
O          1.90420        0.44666       -0.98411
O          1.27963       -1.82603       -0.28943
H          0.00521       -1.44934       -0.84662
C          3.81982       -1.27311       -0.41526
H          4.53339       -0.46359       -0.25938
H          4.03110       -2.10426        0.25766
H          3.82762       -1.60279       -1.45409
N          0.50928        2.23444        1.49737
H          0.98609        1.33380        1.60890
C         -0.49027        2.42305        2.55651
H         -0.05921        2.38313        3.56376
H         -0.98441        3.39104        2.42967
H         -1.24082        1.63579        2.46809
H          1.23862        2.93833        1.56577
N         -0.53726        1.93298       -1.00277
C          0.23714        2.75027       -1.95756
C         -1.98039        2.24662       -0.97996
H         -0.38853        0.93928       -1.21204
H          0.14866        3.80050       -1.67185
H          1.27591        2.42716       -1.91328
H         -0.15820        2.61236       -2.96596
H         -2.10357        3.30877       -0.75923
H         -2.42732        2.01743       -1.94890
H         -2.45521        1.64781       -0.20427
H         -0.11817        2.06731       -0.00250
