38
2msa2dma_92.log	Energy: -1003283.0122549
S         -1.27503       -1.69374       -0.71761
O         -0.91783       -2.99264       -1.26726
O         -0.94463       -0.54526       -1.73150
O         -0.68450       -1.36972        0.59927
H          0.97925       -1.38798        0.90714
C         -3.02807       -1.51482       -0.58654
H         -3.45518       -1.65836       -1.57927
H         -3.37540       -2.28747        0.10042
H         -3.20100       -0.50123       -0.19631
S          1.56050        1.63553       -0.37780
O          2.51882        1.21754        0.68603
O          0.32150        2.24467        0.11271
O          1.31691        0.48094       -1.31670
H         -0.03986       -0.08909       -1.54511
C          2.41568        2.86139       -1.34773
H          2.65714        3.69639       -0.68973
H          3.32175        2.41227       -1.75386
H          1.74756        3.18148       -2.14739
N          2.00977       -1.41281        1.06690
C          2.61720       -2.20236       -0.02688
C          2.28004       -1.92265        2.42430
H          2.31284       -0.40891        0.98307
H          2.17057       -3.19755       -0.04347
H          2.40980       -1.68459       -0.96347
H          3.69429       -2.27079        0.13382
H          1.87389       -2.93076        2.52098
H          3.35706       -1.93695        2.59819
H          1.80085       -1.26198        3.14687
N         -2.58430        1.40134        0.72079
C         -2.60964        1.09926        2.14241
C         -3.29412        2.62709        0.39434
H         -1.61406        1.50111        0.42874
H         -3.64212        0.90992        2.46118
H         -2.02386        0.19451        2.32727
H         -2.20757        1.91299        2.77048
H         -4.36395        2.50163        0.59986
H         -2.93951        3.50299        0.96467
H         -3.17688        2.84233       -0.67106
