42
2msa2eda_84.log	Energy: -1072770.1386976
S         -2.70448       -0.91931       -0.56999
O         -3.29332       -0.12385        0.52623
O         -2.23403       -2.26817       -0.14794
O         -1.62458       -0.19240       -1.30317
C         -4.00094       -1.19807       -1.76358
H         -4.80184       -1.74893       -1.26979
H         -4.35848       -0.22823       -2.11059
H         -3.58737       -1.77459       -2.59093
S          2.70445        0.91927       -0.57009
O          1.62456        0.19235       -1.30327
O          3.29332        0.12383        0.52613
O          2.23397        2.26812       -0.14802
C          4.00090        1.19802       -1.76369
H          4.35831        0.22817       -2.11079
H          3.58737        1.77465       -2.59099
H          4.80190        1.74873       -1.26989
H          1.13057       -0.71746        1.35109
H         -0.25793       -1.75467        1.78364
H          1.99069       -2.35308        2.87387
H          1.21473       -3.69479        2.01609
H          3.30741       -2.00157        0.83048
H          3.45734       -3.59750        1.25140
H          0.73793       -1.18540       -0.73158
H          1.19409       -2.74417       -0.42159
C          0.71096       -1.72200        1.28266
C          1.70038       -2.72152        1.88048
N          0.50526       -2.02692       -0.16169
N          2.80766       -2.88427        0.94494
H         -0.48128       -2.30595       -0.33607
H         -1.13047        0.71758        1.35103
H          0.25797        1.75492        1.78350
H         -1.99071        2.35332        2.87358
H         -1.21478        3.69498        2.01568
H         -3.30729        2.00151        0.83014
H         -3.45738        3.59747        1.25093
H         -0.73787        1.18529       -0.73168
H         -1.19398        2.74411       -0.42190
C         -0.71090        1.72214        1.28249
C         -1.70038        2.72167        1.88016
N         -0.50518        2.02689       -0.16190
N         -2.80762        2.88426        0.94455
H          0.48139        2.30586       -0.33630
