29
2msa1a1ma_71.log	Energy: -929300.1619550
S         -2.07975       -0.83971        0.12269
O         -2.45751        0.38425       -0.61182
O         -1.77567       -0.66390        1.53537
O         -0.92286       -1.56900       -0.62616
H         -0.07144       -0.93803       -0.70421
C         -3.38273       -2.02623       -0.07541
H         -3.55581       -2.17717       -1.14021
H         -3.07278       -2.95105        0.41041
H         -4.26630       -1.61116        0.41006
S          1.92508        0.41214        0.25545
O          3.31097        0.38307       -0.20087
O          0.94820        0.01218       -0.84091
O          1.47666        1.72443        0.81537
H          0.19886        2.21297        0.00013
C          1.72571       -0.79885        1.54354
H          1.99744       -1.76707        1.11376
H          2.40581       -0.52405        2.35057
H          0.68917       -0.78015        1.88535
N          2.99450       -2.65004       -0.95132
H          3.66498       -3.37438       -1.18252
H          3.47979       -1.75524       -0.93436
H          2.31277       -2.60437       -1.70115
N         -0.60008        2.47571       -0.65531
H         -0.19702        2.46797       -1.59104
C         -1.20338        3.77766       -0.30584
H         -1.98847        4.02798       -1.01937
H         -1.63021        3.69930        0.69336
H         -0.43138        4.54664       -0.31181
H         -1.29769        1.70550       -0.62421
