38
2msa2dma_129.log	Energy: -1003280.3460425
S         -0.84884       -1.29287        0.44179
O          0.39640       -2.12392        0.47614
O         -1.11130       -0.69844       -0.88437
O         -0.85173       -0.25632        1.51852
H         -0.18259        1.10391        0.85784
C         -2.16184       -2.42718        0.82409
H         -2.12419       -3.23143        0.08894
H         -1.99558       -2.81318        1.82964
H         -3.10570       -1.88148        0.74447
S          3.09959       -0.09280       -0.32200
O          3.19557        0.30501        1.07781
O          2.31071        0.81430       -1.17584
O          2.61054       -1.55899       -0.48143
H          1.65385       -1.74859       -0.08018
C          4.72005       -0.24464       -1.02788
H          5.17468        0.74581       -0.99965
H          5.28944       -0.94945       -0.42269
H          4.61644       -0.59741       -2.05342
N         -4.12561       -0.03840       -0.53037
C         -4.05622        1.03379        0.44417
C         -5.15694        0.16501       -1.53012
H         -3.21765       -0.16432       -0.97094
H         -4.97061        1.04430        1.04866
H         -3.20780        0.86373        1.11421
H         -3.95241        2.03749       -0.01197
H         -6.14354        0.13136       -1.05411
H         -5.07406        1.13273       -2.05841
H         -5.11570       -0.63635       -2.27239
N          0.22006        1.92256        0.32835
C          0.93016        2.81411        1.26872
C         -0.86730        2.55850       -0.44331
H          0.91382        1.51174       -0.32609
H          0.22560        3.17186        2.02093
H          1.73050        2.24189        1.73933
H          1.35071        3.65853        0.71998
H         -1.60007        2.97370        0.25016
H         -0.45427        3.34994       -1.07088
H         -1.33295        1.78628       -1.05647
