35
2msa1ma1dma_167.log	Energy: -978622.2411332
S          3.04768        0.58706        0.07056
O          4.13079        1.54658        0.00166
O          3.13540       -0.67206       -0.65927
O          1.71939        1.34766       -0.36604
H          1.03660        0.69932       -0.72461
C          2.72293        0.20924        1.78099
H          3.59797       -0.31686        2.16480
H          2.57933        1.14952        2.31365
H          1.83222       -0.42115        1.81981
S         -0.49463       -1.44733       -0.43592
O         -0.15932       -0.22134       -1.23540
O         -1.90161       -1.84582       -0.61050
O         -0.12860       -1.25246        1.00437
H         -1.36141       -0.26886        1.68876
C          0.56110       -2.73705       -1.04907
H          0.31950       -2.89059       -2.10096
H          1.59226       -2.39808       -0.93256
H          0.36415       -3.63904       -0.46942
N         -2.24160        0.28468        1.82340
H         -2.12543        0.92415        2.60560
C         -3.38294       -0.63786        2.01848
H         -4.31484       -0.07085        2.02961
H         -3.37572       -1.33921        1.18312
H         -3.26836       -1.18291        2.95609
H         -2.36105        0.85886        0.87735
N         -2.45880        1.50940       -0.56490
C         -2.30805        2.96346       -0.57979
C         -3.66626        1.03997       -1.24770
H         -1.64699        1.07515       -1.01374
H         -3.12056        3.42529       -0.00863
H         -1.35546        3.23586       -0.11855
H         -2.33047        3.37517       -1.59767
H         -4.55426        1.36262       -0.69288
H         -3.74167        1.43190       -2.27101
H         -3.64074       -0.05147       -1.28849
