28
2msa1dma_45.log	Energy: -918456.4354796
S         -2.07329       -0.94366        0.07754
O         -3.13172       -1.67715        0.76469
O         -0.91397       -0.54564        0.91831
O         -2.57775        0.26857       -0.67695
H         -1.87901        1.49449       -0.28345
C         -1.41712       -2.01646       -1.19424
H         -1.07936       -2.93526       -0.71222
H         -2.21547       -2.23670       -1.90339
H         -0.58328       -1.50924       -1.68198
S          2.33160       -0.23169        0.00154
O          1.73069       -0.37854       -1.31902
O          2.16375        1.01138        0.72766
O          3.93112       -0.46749       -0.19716
H          4.10288       -0.54485       -1.14647
C          1.92397       -1.60030        1.04596
H          0.85234       -1.49730        1.25149
H          2.14753       -2.52028        0.50626
H          2.52022       -1.51703        1.95468
N         -1.35566        2.44718       -0.11734
C         -0.32875        2.57070       -1.17645
C         -0.80800        2.50784        1.25923
H         -2.05981        3.17368       -0.23669
H          0.35654        1.72843       -1.08722
H         -0.82346        2.53449       -2.14731
H          0.21816        3.50830       -1.05953
H         -0.06357        1.72026        1.36125
H         -0.35590        3.48768        1.42820
H         -1.61866        2.32890        1.96533
