37
2msa1ma1eda_169.log	Energy: -1013361.2678909
S         -0.79264       -2.24471       -0.25720
O         -2.15584       -1.70008       -0.37319
O         -0.28453       -2.40406        1.11295
O          0.16561       -1.42384       -1.11093
C         -0.79571       -3.86015       -1.01321
H         -1.48506       -4.48760       -0.44759
H         -1.12572       -3.75582       -2.04668
H          0.21585       -4.26367       -0.96502
S          2.55337        0.69656        0.04793
O          2.10010        0.83804        1.42568
O          1.90140        1.54543       -0.95140
O          2.51311       -0.80530       -0.41209
H          1.55672       -1.10889       -0.65754
C          4.30844        0.96349       -0.01492
H          4.48162        1.99396        0.29648
H          4.78477        0.26644        0.67399
H          4.64773        0.80392       -1.03772
N         -0.82806        0.44409        1.98852
H         -0.35859       -0.45978        1.90310
C         -2.14055        0.24577        2.60855
H         -2.08644       -0.20686        3.60597
H         -2.66018        1.20567        2.69663
H         -2.72957       -0.41289        1.96502
H         -0.21955        1.02919        2.55252
H         -2.39656        1.44725       -2.14809
H         -2.91549        0.52721       -0.72543
H         -3.90061        2.81377       -0.66928
H         -2.75884        2.60353        0.66056
H         -2.22563        4.10816       -1.79556
H         -2.06791        4.59804       -0.24205
H         -0.54166        0.31664       -1.11204
H         -0.33865        1.96015       -0.89131
C         -2.34082        1.39408       -1.05635
C         -2.83551        2.68907       -0.42860
N         -0.93635        1.16102       -0.66756
N         -1.98864        3.79915       -0.85891
H         -0.87046        0.96727        0.39686
