38
2msa2dma_51.log	Energy: -1003286.7909851
S         -2.62525       -0.47848       -0.09230
O         -2.95565        0.76641        0.60833
O         -2.28470       -1.62794        0.79155
O         -1.54045       -0.29555       -1.12440
C         -4.06990       -0.97470       -1.01056
H         -4.87534       -1.14275       -0.29518
H         -4.32712       -0.16879       -1.69792
H         -3.83850       -1.89076       -1.55382
S          0.57488        2.11338        0.18479
O          1.72129        2.96317       -0.06843
O          0.80957        0.85739        0.91785
O         -0.08751        1.77904       -1.20162
H         -0.71688        0.96969       -1.15020
C         -0.68288        3.01360        1.05363
H         -1.56790        2.37468        1.11679
H         -0.28470        3.24694        2.04175
H         -0.88650        3.92551        0.49223
N          0.41840       -1.91502        0.58600
C          0.62947       -2.71693       -0.63586
C          1.07538       -2.45971        1.78941
H          0.76840       -0.95609        0.43772
H          0.20747       -3.71150       -0.48203
H          0.11324       -2.21744       -1.45584
H          1.70081       -2.77165       -0.82956
H          0.67307       -3.45212        1.99834
H          2.14892       -2.50838        1.60338
H          0.87058       -1.79240        2.62658
H         -0.61368       -1.81673        0.74735
N          3.15724       -0.68692       -0.21452
C          2.98722       -0.31957       -1.61543
C          4.51985       -1.09691        0.09030
H          2.90108        0.11064        0.36073
H          3.13379       -1.20443       -2.24631
H          1.97330        0.05435       -1.78184
H          3.69327        0.45635       -1.95067
H          4.74756       -2.03282       -0.43311
H          5.27754       -0.35357       -0.20798
H          4.62279       -1.27846        1.16416
