32
2msa1a1dma_54.log	Energy: -953966.8367297
S         -2.06083       -0.59556       -0.37351
O         -2.13214        0.72401       -1.06709
O         -2.03835       -0.45334        1.09508
O         -0.93311       -1.43031       -0.89415
H          0.37256       -0.79017       -1.23796
C         -3.53613       -1.48563       -0.81689
H         -4.39389       -0.91677       -0.45806
H         -3.56187       -1.58725       -1.90163
H         -3.49183       -2.46330       -0.33699
S          2.31436       -0.29661       -0.32429
O          3.53386        0.26996       -0.86218
O          1.27298       -0.36415       -1.50187
O          1.68720        0.40099        0.81726
H          0.37787        1.49168        0.56077
C          2.56261       -1.98652        0.15048
H          2.83456       -2.54527       -0.74504
H          3.37951       -1.99214        0.87344
H          1.64542       -2.34974        0.62730
N          0.32634       -1.93581        2.48926
H          0.04203       -2.42674        3.32990
H         -0.51145       -1.55732        2.04863
H          0.89317       -1.14056        2.76733
N         -0.32629        2.21317        0.30098
C          0.36256        3.26441       -0.47530
C         -1.01787        2.67850        1.52216
H         -1.02758        1.71640       -0.30608
H          1.11810        3.74050        0.15126
H          0.84219        2.79885       -1.33676
H         -0.36779        4.00207       -0.81047
H         -0.28722        3.10273        2.21272
H         -1.75685        3.43259        1.24753
H         -1.51430        1.81572        1.96821
