43
2msa1eda1tma_213.log	Energy: -1062672.6214074
S          1.25374       -0.80580       -0.10768
O          0.44175       -0.38081       -1.25413
O          1.57157        0.28275        0.85396
O          2.53748       -1.49919       -0.52741
H          3.69233       -0.68517       -0.20531
C          0.33576       -2.05336        0.77036
H         -0.63623       -1.63865        1.05635
H          0.20004       -2.89844        0.09421
H          0.91221       -2.35247        1.64610
S         -3.60278       -0.97918       -0.00289
O         -4.83699       -1.72886        0.21908
O         -2.69742       -0.86643        1.17275
O         -3.83976        0.40351       -0.58121
H         -3.22510        1.40081        0.30572
C         -2.68147       -1.83180       -1.27513
H         -2.50313       -2.85103       -0.92833
H         -3.29120       -1.84527       -2.17918
H         -1.73795       -1.30833       -1.44533
H         -0.67051        2.41294        1.55385
H         -0.99566        0.83500        0.80770
H          0.16298        2.33961       -0.80126
H         -1.44627        1.90704       -1.36176
H         -0.65711        4.50792       -0.27885
H         -1.56441        4.17133       -1.59537
H         -2.94129        1.75693        1.93681
H         -2.93049        3.03324        0.83338
C         -1.22079        1.89719        0.76147
C         -0.90446        2.48059       -0.60477
N         -2.67763        2.05623        1.00065
N         -1.36013        3.87679       -0.64815
N          4.56771       -0.05040        0.01355
C          4.66942        0.04904        1.48689
H          3.71778        0.42955        1.86047
H          4.84348       -0.94760        1.89474
H          5.49608        0.71240        1.75610
C          5.74470       -0.70547       -0.59133
H          5.86707       -1.69331       -0.14558
H          5.57520       -0.81624       -1.66291
H          6.64039       -0.10403       -0.41361
C          4.28101        1.26525       -0.60236
H          4.13192        1.12364       -1.67360
H          3.36017        1.64776       -0.16003
H          5.11671        1.94725       -0.42276
