32
2msa1a1dma_14.log	Energy: -953973.9587300
S          1.55360       -1.37901       -0.01529
O          0.69373       -1.58074        1.16937
O          2.86773       -0.78584        0.26090
O          0.82463       -0.58081       -1.08491
C          1.81455       -2.98238       -0.74999
H          2.36258       -3.59224       -0.03135
H          0.84197       -3.42442       -0.96754
H          2.39285       -2.84876       -1.66410
S         -2.49978        0.01246       -0.14825
O         -3.84500        0.28466       -0.60944
O         -1.68585        1.12220        0.35899
O         -1.72584       -0.68920       -1.33409
H         -0.71851       -0.66014       -1.20397
C         -2.54239       -1.24755        1.10577
H         -3.06053       -0.82773        1.96896
H         -3.09282       -2.09907        0.70568
H         -1.51044       -1.51463        1.34736
N          0.54476        1.29195        2.27618
H          0.69150        0.28377        2.18712
H         -0.46129        1.43799        2.24637
H          0.90055        1.59275        3.17667
N          1.30083        2.06559       -0.28227
C          0.43415        3.13510       -0.81629
C          2.74954        2.33610       -0.39038
H          1.05462        1.87393        0.74006
H          0.64381        3.27743       -1.87811
H         -0.60425        2.83760       -0.67179
H          0.63863        4.06218       -0.27708
H          3.00844        2.50514       -1.43725
H          2.99114        3.22434        0.19668
H          3.28357        1.46375       -0.01248
H          1.08781        1.16037       -0.74730
