34
2msa1a1eda_288.log	Energy: -988692.9091317
S         -2.29589       -0.28197       -0.27949
O         -2.24014       -1.26826        0.84353
O         -1.43507       -0.62826       -1.41824
O         -2.04323        1.09786        0.25369
H         -0.83819        2.03341       -0.21722
C         -3.97915       -0.28621       -0.86000
H         -4.20312       -1.28720       -1.22905
H         -4.63372       -0.02201       -0.02977
H         -4.05592        0.44659       -1.66343
S          1.32439        1.94885       -0.09953
O          2.33657        2.97923       -0.10324
O         -0.06113        2.64219       -0.42032
O          1.16609        1.15229        1.13644
H         -0.02960        0.50748        2.04879
C          1.57216        0.81332       -1.43540
H          1.77892        1.40147       -2.32972
H          2.41307        0.16440       -1.16153
H          0.66075        0.22130       -1.55548
N         -0.78024        0.06483        2.63561
H         -1.40855        0.80161        2.94891
H         -0.37239       -0.41880        3.43076
H         -1.33852       -0.58924        2.01065
H          2.84571       -3.55496        0.71068
H          2.97302       -1.98359        1.52014
H          0.61764       -2.69273        1.31351
H          0.94019       -1.19617        0.42558
H          0.46780       -3.81485       -0.75090
H         -0.16494       -2.34843       -1.14646
H          4.32803       -2.07906       -0.51132
H          2.94772       -2.28118       -1.38662
C          2.64109       -2.47574        0.59861
C          1.13643       -2.27157        0.43605
N          3.33526       -1.87574       -0.53744
N          0.67473       -2.82585       -0.83154
