37
2msa1ma1eda_79.log	Energy: -1013368.5569718
S          2.19387       -1.31670       -0.02739
O          3.58790       -1.63227       -0.31856
O          1.66935       -0.16140       -0.84479
O          1.90671       -1.09080        1.42281
H          0.82305       -0.05924        2.00828
C          1.18699       -2.71379       -0.49816
H          1.49167       -3.56126        0.11680
H          0.13673       -2.46340       -0.33018
H          1.37768       -2.92633       -1.55121
S         -2.64712       -0.32262        0.19529
O         -2.32473       -0.22979        1.64464
O         -1.92148       -1.39267       -0.51819
O         -2.48484        0.99509       -0.49833
H         -1.25710        0.77113       -1.60974
C         -4.38543       -0.71243        0.12941
H         -4.53516       -1.66384        0.64000
H         -4.93389        0.08583        0.62947
H         -4.67869       -0.78749       -0.91780
N         -0.45175        0.56704       -2.25547
H          0.31291        0.11832       -1.68279
C          0.06345        1.79807       -2.89466
H          0.88384        1.54152       -3.56505
H         -0.73831        2.28780       -3.44780
H          0.43479        2.45962       -2.10918
H         -0.78253       -0.12036       -2.92897
H          2.44087        1.55664        1.65758
H          1.86212        3.20884        1.92897
H         -0.40492        2.59512        1.45739
H          0.12295        1.37407        0.30249
H          0.29396        1.01546        3.21321
H         -0.82927        0.33013        2.14720
H          2.94141        3.32819       -0.09798
H          2.33694        1.89380       -0.61857
C          1.77463        2.34026        1.26787
C          0.33633        1.81626        1.27203
N          2.11516        2.74090       -0.09567
N          0.14141        0.71621        2.25284
