35
2msa1ma1dma_45.log	Energy: -978628.8210406
S         -0.77628        1.71778        0.00937
O         -2.23281        1.89081       -0.11755
O         -0.15899        1.16115       -1.24160
O         -0.36070        0.91465        1.18843
C         -0.07118        3.34374        0.21765
H         -0.34393        3.94338       -0.65096
H         -0.48073        3.77761        1.13012
H          1.01276        3.24356        0.28917
S          2.76026       -0.51193       -0.08689
O          4.08415       -0.97697       -0.44237
O          1.68509       -1.49427        0.07710
O          2.33016        0.55837       -1.16336
H          1.32778        0.74895       -1.17729
C          2.85439        0.43440        1.41793
H          3.18587       -0.24762        2.20209
H          3.58599        1.22929        1.27148
H          1.85670        0.82310        1.63508
N         -3.60523       -0.58724        0.62253
H         -4.05303       -0.71903        1.52376
C         -4.54720       -0.85210       -0.47007
H         -5.46678       -0.25821       -0.40839
H         -4.05857       -0.61582       -1.41852
H         -4.81922       -1.91180       -0.48057
H         -3.28981        0.38607        0.57240
N         -1.11027       -1.73182        0.17898
C         -1.02728       -1.95506       -1.28149
C         -0.87561       -2.94500        0.98424
H         -0.42118       -1.01266        0.44651
H         -1.81914       -2.64630       -1.57728
H         -1.14623       -0.99177       -1.77837
H         -0.04601       -2.36547       -1.51932
H         -1.62054       -3.69795        0.71972
H          0.12984       -3.31579        0.78492
H         -0.97062       -2.68946        2.04012
H         -2.07212       -1.32616        0.41026
