37
2msa1ma1eda_356.log	Energy: -1013356.8157112
S          1.16579       -0.76385       -0.48711
O          1.55882        0.09779       -1.61817
O          0.83598        0.03317        0.74098
O          2.22593       -1.77427       -0.13199
H          3.10149       -1.12294        0.94452
C         -0.27050       -1.69233       -0.94757
H         -1.05657       -1.00033       -1.26083
H          0.01972       -2.35728       -1.76149
H         -0.61543       -2.25050       -0.07692
S         -3.58990       -0.24436        0.21415
O         -3.14408       -1.50927        0.81205
O         -2.98787        0.05709       -1.10863
O         -3.43416        0.93648        1.14089
H         -2.05435        1.59306        0.89956
C         -5.35367       -0.37622       -0.04191
H         -5.53119       -1.21292       -0.71827
H         -5.82494       -0.55751        0.92433
H         -5.71305        0.55528       -0.47939
N         -1.07819        1.98660        0.66506
H         -0.83197        2.69132        1.35540
C         -1.04930        2.52934       -0.71374
H         -0.02030        2.74921       -0.99916
H         -1.47142        1.76784       -1.36981
H         -1.66521        3.42783       -0.76106
H         -0.39024        1.20287        0.74529
H          5.64422        0.37975        1.52940
H          5.51766       -1.24248        0.79605
H          5.76023        0.64124       -0.91698
H          4.31599       -0.35418       -1.13466
H          4.36824        2.41126       -0.52197
H          3.08272        1.43318       -0.90242
H          3.75978       -0.75562        2.50126
H          3.21423        0.45288        1.47295
C          5.03699       -0.26658        0.88990
C          4.79150        0.38097       -0.47858
N          3.71211       -0.44881        1.53345
N          3.91023        1.53371       -0.31678
