32
2msa2ma_42.log	Energy: -953968.4852473
S         -2.67625        0.57193       -0.19161
O         -3.95963        1.16058        0.12399
O         -2.20292       -0.22896        1.08420
O         -1.59059        1.46326       -0.63076
H         -0.00926        1.89138        0.07520
C         -2.86796       -0.68263       -1.43313
H         -3.64345       -1.36923       -1.09369
H         -3.17145       -0.17864       -2.35144
H         -1.90927       -1.19418       -1.55132
S          0.93505       -1.75580        0.09910
O          2.21125       -1.17305       -0.35601
O         -0.01607       -2.12933       -0.95412
O          0.28779       -0.84482        1.13277
H         -1.23032       -0.52390        1.04351
C          1.33921       -3.23677        1.00728
H          1.80748       -3.93404        0.31203
H          2.02674       -2.97160        1.81024
H          0.41589       -3.65555        1.40784
N          2.95556        1.46650       -1.30737
H          2.72436        0.47636       -1.41059
C          4.27620        1.59291       -0.68313
H          5.08832        1.16576       -1.28336
H          4.49923        2.64739       -0.49705
H          4.25897        1.06924        0.27618
H          2.94585        1.89286       -2.22796
N          0.90519        1.79292        0.54754
H          0.86786        0.83195        0.94082
C          1.11207        2.82229        1.58118
H          2.07087        2.65270        2.07199
H          1.11182        3.80829        1.11606
H          0.31095        2.76901        2.31868
H          1.67361        1.79179       -0.19206
