35
2msa1a1tma_11.log	Energy: -978631.3659178
S         -2.63848       -0.33684       -0.22216
O         -2.23181       -0.85291        1.11944
O         -1.78590       -0.81879       -1.32302
O         -2.79040        1.15254       -0.19544
H         -1.90665        1.77008        1.14956
C         -4.27655       -0.98029       -0.52483
H         -4.93459       -0.64805        0.27816
H         -4.61786       -0.59595       -1.48632
H         -4.21271       -2.06850       -0.54690
S          1.72546        1.57632       -0.29201
O          2.42374        2.84051       -0.09081
O          1.08897        1.02185        0.95835
O          2.55905        0.49102       -0.91059
H          2.19221       -0.88797       -0.31513
C          0.39038        1.84832       -1.44363
H          0.83376        2.18820       -2.38017
H         -0.16274        0.91657       -1.58092
H         -0.27138        2.61678       -1.04198
N         -1.28509        1.58832        1.97466
H         -0.28895        1.50205        1.62055
H         -1.58855        0.64519        2.25551
H         -1.38113        2.27516        2.71491
N          2.07012       -1.86223        0.11664
C          0.61730       -2.12217        0.28314
H          0.20141       -1.39433        0.97683
H          0.10786       -1.99318       -0.67248
H          0.47627       -3.13719        0.66350
C          2.69712       -2.81689       -0.82233
H          2.16026       -2.77742       -1.77039
H          3.73679       -2.52888       -0.98223
H          2.64456       -3.82597       -0.40620
C          2.77169       -1.80943        1.41933
H          3.82788       -1.60142        1.24431
H          2.33515       -0.99532        1.99824
H          2.65268       -2.76534        1.93546
