37
2msa1ma1eda_34.log	Energy: -1013374.7592127
S         -2.88147        0.38742        0.16874
O         -2.47105        1.64672        0.80870
O         -2.99322       -0.78736        1.05330
O         -1.97778        0.07378       -1.01196
C         -4.49485        0.65849       -0.54505
H         -4.42623        1.48775       -1.24922
H         -4.80735       -0.25415       -1.05263
H         -5.18152        0.90048        0.26667
S          2.41262       -1.11784       -0.02106
O          2.88474       -0.05127       -0.92676
O          1.93707       -2.34403       -0.71385
O          1.37192       -0.60994        0.93372
C          3.80710       -1.61274        0.97355
H          4.57237       -2.00371        0.30263
H          4.17398       -0.73583        1.50718
H          3.47803       -2.38069        1.67348
N         -0.77214       -2.25362       -0.13182
H         -0.65433       -1.92745        0.83001
H         -1.19011       -1.43150       -0.62483
C         -1.66822       -3.42509       -0.20723
H         -1.81065       -3.69036       -1.25460
H         -1.21707       -4.26312        0.32398
H         -2.62080       -3.15186        0.24560
H          0.18949       -2.42937       -0.49248
H          0.05592        3.60919       -0.55696
H         -0.26105        2.84088        1.01758
H          1.92567        4.15517        0.93051
H          2.15746        2.45709        1.34963
H          3.46502        3.68171       -0.65458
H          3.11999        2.07185       -0.71339
H         -0.61564        1.26049       -0.79713
H          0.97694        1.51462       -1.29834
C          0.41171        2.86585        0.15921
C          1.86492        3.13682        0.53663
N          0.33785        1.53950       -0.49798
N          2.71562        3.00331       -0.64340
H          0.66481        0.78812        0.14838
