42
2msa2eda_600.log	Energy: -1072737.2644052
S         -2.55617        1.56394        0.07003
O         -2.97542        0.36116        0.78541
O         -2.64029        1.55445       -1.38370
O         -1.10802        1.98931        0.53740
H         -0.43379        1.24319        0.33670
C         -3.46671        2.95434        0.69912
H         -4.51329        2.78292        0.44587
H         -3.33266        2.99722        1.77944
H         -3.09436        3.85709        0.21591
S          1.15103       -0.28967       -1.17911
O          0.51483        0.09453        0.13054
O          1.93553       -1.52891       -1.04387
O          1.99790        0.84071       -1.69528
H          3.43646        0.53796       -1.06850
C         -0.16625       -0.54127       -2.33218
H         -0.83389       -1.30324       -1.90616
H         -0.70432        0.40128       -2.44889
H          0.27884       -0.86435       -3.27371
H         -2.76091       -3.85135        0.83454
H         -1.59348       -4.28514       -0.43351
H         -0.41986       -3.87541        1.61270
H         -0.00841       -2.60021        0.45156
H         -0.52942       -1.79854        2.71909
H         -1.59505       -1.18157        1.65993
H         -3.14612       -2.72052       -1.30729
H         -2.78750       -1.60677       -0.17605
C         -1.95618       -3.46112        0.19194
C         -0.81389       -2.99788        1.08641
N         -2.40239       -2.38893       -0.70202
N         -1.28835       -2.04877        2.09450
H          5.39452        0.92082        1.17542
H          4.66482        2.19908        0.16513
H          3.49672        1.87477        2.41711
H          2.42758        1.68032        1.02470
H          3.10238       -0.32958        2.91378
H          1.99470       -0.37190        1.67701
H          5.06083       -0.00117       -0.99083
H          3.88260       -0.63285        0.02221
C          4.49674        1.22647        0.63201
C          3.27276        1.23461        1.55751
N          4.24080        0.22448       -0.43396
N          2.95006       -0.13551        1.93382
