35
2msa1ma1dma_260.log	Energy: -978615.6033004
S         -0.99195       -0.83545       -0.59020
O         -1.09032        0.59703       -0.94293
O         -0.84312       -1.12623        0.83012
O          0.15617       -1.49947       -1.42164
H          1.07905       -1.04994       -1.20880
C         -2.40666       -1.66576       -1.24650
H         -3.28341       -1.25694       -0.72326
H         -2.45142       -1.46732       -2.31716
H         -2.28675       -2.73095       -1.04847
S          3.09623       -0.29163        0.33949
O          4.52459       -0.44119        0.10684
O          2.27998       -0.30734       -0.94090
O          2.70475        0.92283        1.12311
H          1.70701        1.78954        0.23716
C          2.53085       -1.69086        1.28889
H          2.77059       -2.59662        0.73059
H          3.06702       -1.67724        2.23821
H          1.45494       -1.59911        1.44818
N          1.10306        2.26080       -0.50513
H          1.63566        2.16510       -1.36954
C          0.78496        3.66393       -0.17725
H          0.18663        4.10701       -0.97355
H          0.22269        3.68225        0.75584
H          1.71219        4.22238       -0.05051
H          0.25193        1.67616       -0.62431
N         -4.66669       -0.05863        0.52665
C         -4.48017        1.27283       -0.03534
C         -4.08923       -0.19267        1.85921
H         -5.65605       -0.27831        0.56104
H         -3.41228        1.44274       -0.20788
H         -4.98970        1.34098       -1.00056
H         -4.85648        2.07879        0.61768
H         -3.00205       -0.08582        1.79632
H         -4.46858        0.55582        2.57542
H         -4.29891       -1.19040        2.25342
