37
2msa1ma1eda_213.log	Energy: -1013361.0741662
S          1.55016        1.78358       -0.31033
O          1.87255        1.15943        0.98403
O          0.55850        2.87224       -0.25766
O          1.13264        0.74120       -1.33212
C          3.06008        2.47880       -0.95552
H          3.40118        3.23904       -0.25236
H          3.79627        1.67962       -1.04418
H          2.84711        2.92085       -1.92866
S          0.95168       -2.45546        0.18271
O          1.02835       -3.88193       -0.04507
O         -0.37836       -1.86167        0.40417
O          1.64138       -1.74154       -1.03990
H          1.45719       -0.73722       -1.09806
C          1.96798       -2.00579        1.56759
H          1.51279       -2.44761        2.45475
H          2.96150       -2.42088        1.39764
H          1.99479       -0.91485        1.62804
N         -1.82737        2.08658        1.27049
H         -1.13600        2.73750        0.89372
C         -1.29280        1.46385        2.48876
H         -1.14177        2.17677        3.30785
H         -1.97158        0.67772        2.83412
H         -0.32773        1.00893        2.25249
H         -2.68195        2.59980        1.46004
H         -3.18051        0.91254       -2.05695
H         -2.40037       -0.61848       -2.52957
H         -4.60722       -1.05625       -1.58576
H         -3.35247       -1.74520       -0.54982
H         -5.19774       -0.40503        0.55161
H         -3.70229        0.10409        0.95255
H         -0.79195        0.69998       -1.35316
H         -1.81550        1.00536       -0.04936
C         -2.75592       -0.02256       -1.68530
C         -3.79870       -0.79967       -0.89532
N         -1.59129        0.30773       -0.83387
N         -4.35521        0.01782        0.17951
H         -1.20058       -0.54102       -0.38463
