30
2msa1eda_59.log	Energy: -953202.9360382
S          1.71926       -1.31353        0.08235
O          0.48180       -1.87964        0.69259
O          2.35991       -0.27156        0.91162
O          1.49800       -0.86107       -1.32363
C          2.84390       -2.68988       -0.01881
H          3.01230       -3.06074        0.99219
H          2.38495       -3.45718       -0.64194
H          3.77385       -2.33351       -0.46188
S         -2.53571       -0.23514       -0.14946
O         -2.74366       -1.31452       -1.09764
O         -1.96697        1.01574       -0.66665
O         -1.71886       -0.71160        1.10592
H         -0.82715       -1.17281        0.88152
C         -4.06825        0.15675        0.66140
H         -4.46568       -0.75631        1.10340
H         -3.87653        0.91312        1.42172
H         -4.74205        0.53935       -0.10583
H          2.62198        1.60831       -0.63966
H          2.22154        3.04167       -1.61880
H          2.54500        3.46177        0.89223
H          0.99749        4.04178        0.25842
H          1.31619        1.45204        1.62659
H          0.42871        2.76056        2.14514
H          0.86452        0.65958       -1.47305
H         -0.02880        1.63892       -0.46888
C          1.87253        2.37958       -0.82511
C          1.58171        3.13911        0.47255
N          0.63933        1.66865       -1.26447
N          0.79207        2.27645        1.33524
H          0.15585        2.09432       -2.05061
