26
2msa2a_87.log	Energy: -904631.5490984
S         -1.75984       -0.57685       -0.30034
O         -0.74690       -0.04738       -1.21940
O         -3.00030       -1.07471       -0.88523
O         -2.10046        0.54036        0.75458
H         -3.12535        0.74694        0.75054
C         -1.00460       -1.83556        0.69328
H         -0.68321       -2.62694        0.01444
H         -0.14701       -1.39089        1.20358
H         -1.75080       -2.20553        1.39601
S          2.62327       -0.23069        0.21437
O          3.63164       -1.24766        0.42871
O          1.57684       -0.02643        1.21499
O          1.91768       -0.56864       -1.18170
H          0.96955       -0.29166       -1.17829
C          3.40803        1.32577       -0.11811
H          3.93820        1.61125        0.79181
H          4.10893        1.17764       -0.93969
H          2.61980        2.04595       -0.36313
N          0.43878        2.68096       -0.27584
H         -0.14986        2.16992       -0.92736
H          0.11230        3.64058       -0.24444
H          0.27326        2.26250        0.63542
N         -4.66527        0.94506        0.60537
H         -4.93593        1.85111        0.23600
H         -5.21720        0.76541        1.43802
H         -4.89088        0.23670       -0.09084
