37
2msa1ma1eda_16.log	Energy: -1013375.7012864
S         -2.22209       -1.32420       -0.19204
O         -2.83922       -0.33792       -1.08959
O         -1.30631       -0.68920        0.81626
O         -1.53937       -2.45541       -0.87730
C         -3.54199       -2.06353        0.75711
H         -3.11112       -2.78069        1.45586
H         -4.06496       -1.27085        1.29284
H         -4.21498       -2.56284        0.05964
S          2.83812        0.53768       -0.09500
O          2.93626       -0.57253       -1.08153
O          2.17894        0.10776        1.16401
O          2.20937        1.76547       -0.65742
C          4.51567        0.99021        0.30598
H          5.01526        0.11333        0.71803
H          5.00641        1.31831       -0.61039
H          4.48572        1.79665        1.03872
N          1.04640       -2.25800        0.00104
H          0.83881       -1.54842        0.71554
H          0.13903       -2.44514       -0.48014
C          1.63646       -3.46628        0.60414
H          1.86765       -4.18492       -0.18171
H          2.54941       -3.18846        1.13074
H          0.92325       -3.90448        1.30234
H          1.72202       -1.77778       -0.62965
H         -0.81047        3.26483       -1.27369
H         -1.47116        1.63222       -1.57439
H         -3.28874        3.20661       -0.91419
H         -3.08633        1.88317        0.23125
H         -2.21579        4.65437        0.64861
H         -3.08934        3.69450        1.64382
H          0.60413        1.82650       -0.11627
H         -0.45889        2.45442        1.04047
C         -1.30274        2.40051       -0.81908
C         -2.61549        2.79171       -0.15354
N         -0.38982        1.85343        0.21325
N         -2.33942        3.69799        0.96352
H         -0.68524        0.88804        0.48721
