28
2msa1dma_83.log	Energy: -918445.3104144
S          2.80630        0.46738        0.17961
O          2.08598        0.92224        1.34963
O          2.72867       -0.95219       -0.17607
O          4.38133        0.80360        0.34125
H          4.82824        0.03029        0.71750
C          2.44515        1.49153       -1.21630
H          1.38494        1.33198       -1.42233
H          2.65090        2.52515       -0.93849
H          3.06645        1.16550       -2.04948
S         -0.82934       -1.13614       -0.23303
O         -2.03446       -1.80013       -0.68620
O         -0.28842       -0.01863       -1.00459
O          0.29964       -2.26731       -0.13518
H          1.19164       -1.85334       -0.17633
C         -1.03632       -0.61090        1.44911
H         -1.86954        0.10125        1.43028
H         -1.28615       -1.48868        2.04551
H         -0.10675       -0.14626        1.78182
N         -3.77006        0.73154        0.17988
C         -3.42065        1.74798       -0.80119
C         -5.07626        0.95056        0.77808
H         -3.73857       -0.18391       -0.25999
H         -3.30391        2.71452       -0.29783
H         -2.46676        1.49178       -1.26914
H         -4.18016        1.87088       -1.59309
H         -5.06154        1.88179        1.35544
H         -5.89127        1.02909        0.03726
H         -5.31203        0.13359        1.46559
