38
2msa2dma_211.log	Energy: -1003272.6640841
S         -0.82242       -1.64642        0.20283
O         -0.28336       -1.06351        1.43995
O         -0.74221       -0.70980       -0.96684
O         -2.24347       -2.12281        0.35303
H         -3.19980       -0.97358        0.12240
C          0.14097       -3.07093       -0.22416
H          1.17197       -2.72126       -0.37620
H          0.07372       -3.77731        0.60397
H         -0.27594       -3.49943       -1.13571
S          0.99942        2.33015       -0.10407
O          0.97056        3.77087       -0.25236
O          2.03741        1.54823       -0.76305
O         -0.42596        1.79560       -0.58129
H         -0.41532        0.79615       -0.74671
C          1.00564        1.91754        1.62783
H          1.99688        2.16262        2.01171
H          0.24426        2.52122        2.12232
H          0.79021        0.85133        1.73063
N          2.95286       -1.39231       -0.34805
C          4.17544       -1.59957       -1.10699
C          3.19695       -1.27474        1.08124
H          2.51043       -0.53397       -0.66793
H          4.61434       -2.56854       -0.84212
H          3.94760       -1.61435       -2.17622
H          4.93899       -0.82271       -0.92751
H          3.63149       -2.20849        1.45744
H          3.88950       -0.45452        1.34030
H          2.24708       -1.11528        1.59896
N         -3.82625       -0.09705       -0.02214
C         -3.78969        0.28096       -1.45680
C         -3.33863        0.96739        0.89248
H         -4.77222       -0.36653        0.24355
H         -2.74371        0.39865       -1.73968
H         -4.23226       -0.52516       -2.04192
H         -4.33942        1.21119       -1.60857
H         -2.35753        1.29767        0.54792
H         -4.03573        1.80697        0.88234
H         -3.25059        0.54865        1.89508
