37
2msa1ma1eda_205.log	Energy: -1013361.6767133
S         -2.77791       -0.83264       -0.28981
O         -2.01017       -2.02371       -0.67861
O         -2.85940        0.26796       -1.23877
O         -2.27773       -0.33537        1.10289
H         -1.63719        0.53649        1.08627
C         -4.42141       -1.37725        0.11668
H         -4.85405       -1.79510       -0.79284
H         -4.35313       -2.13643        0.89529
H         -4.99231       -0.51401        0.45735
S          0.15224        1.99221        0.12423
O          1.34710        2.67307        0.62799
O         -0.77348        1.57373        1.24163
O          0.44328        0.83874       -0.77220
H          0.63234       -0.69176       -0.22317
C         -0.79192        3.13098       -0.86393
H         -1.07446        3.97335       -0.23211
H         -0.16319        3.46054       -1.69131
H         -1.66937        2.59400       -1.22849
N          0.70852       -1.68027        0.12169
H         -0.12161       -2.15878       -0.25005
C          0.72622       -1.68549        1.60191
H          0.85561       -2.70812        1.95965
H          1.55921       -1.05932        1.92602
H         -0.21503       -1.27860        1.96871
H          1.60933       -2.06963       -0.23587
H          5.31117       -1.32829       -0.64053
H          4.22138       -1.55682       -2.01454
H          4.29332        0.79978       -1.23196
H          2.66961        0.12620       -1.17975
H          4.37799        0.58468        1.13575
H          2.86871        1.13124        0.83743
H          3.86586       -3.26726       -0.38567
H          3.57626       -2.14779        0.77594
C          4.25291       -1.32451       -0.94542
C          3.65822        0.06300       -0.71751
N          3.47949       -2.34377       -0.21854
N          3.49047        0.33214        0.71106
