42
2msa2eda_329.log	Energy: -1072754.9860884
S          1.41925       -2.23916        0.37786
O          0.29696       -3.10499       -0.01541
O          1.30467       -1.62107        1.70755
O          1.66458       -1.19591       -0.70579
C          2.89988       -3.23406        0.38173
H          2.77335       -4.01233        1.13492
H          3.02447       -3.67121       -0.60890
H          3.74326       -2.59084        0.63419
S          1.52314        2.21975       -0.39579
O          1.21472        2.69239        0.94513
O          0.39410        1.80570       -1.23509
O          2.60545        1.08890       -0.36447
H          2.20693        0.12847       -0.44307
C          2.42764        3.49150       -1.24806
H          1.77852        4.36624       -1.29718
H          3.32819        3.71284       -0.67550
H          2.67450        3.13170       -2.24631
H         -1.89018       -1.50145       -2.90395
H         -1.49126       -2.59423       -1.54741
H         -4.00080       -2.12273       -1.92098
H         -3.40841       -1.89099       -0.28222
H         -4.74129       -0.01443       -1.71242
H         -3.75406        0.35092       -0.44852
H         -1.30102        0.34116       -1.57832
H         -1.23129       -0.54114       -0.14690
C         -1.92637       -1.63074       -1.81926
C         -3.35756       -1.48911       -1.30299
N         -1.07838       -0.58328       -1.20953
N         -3.79397       -0.09576       -1.36751
H         -0.06939       -0.75328       -1.33926
H         -1.62785        0.82627        3.19904
H         -0.22974        1.04540        2.14276
H         -1.80966        2.86394        1.85550
H         -1.60933        1.95709        0.35913
H         -3.87626        1.55983        2.19342
H         -3.93134        2.37812        0.79144
H         -0.75887       -1.14800        1.88756
H         -2.38789       -0.89502        1.77568
C         -1.29702        0.81268        2.14857
C         -2.02211        1.90073        1.37119
N         -1.47769       -0.51150        1.54230
N         -3.46129        1.61312        1.26645
