37
2msa1ma1eda_270.log	Energy: -1013360.5450502
S          1.69929        1.82774       -0.32696
O          0.37777        2.10930        0.46411
O          1.79455        2.61942       -1.53859
O          1.88407        0.37201       -0.46420
C          2.87795        2.42257        0.86261
H          2.68309        3.48115        1.03293
H          2.76863        1.85007        1.78344
H          3.86723        2.27993        0.42678
S         -2.65487        0.18040       -0.12676
O         -2.65490        0.14908        1.34475
O         -2.74521       -1.14908       -0.77616
O         -1.47558        0.93787       -0.68605
H         -0.45311        1.64054        0.02955
C         -4.08915        1.10501       -0.63854
H         -4.97311        0.57189       -0.28809
H         -4.03076        2.09441       -0.18476
H         -4.08259        1.17480       -1.72615
N         -0.33211       -1.61137        2.02474
H         -1.26364       -1.19026        2.04487
C          0.62459       -0.72513        2.69342
H          0.40804       -0.57347        3.75809
H          1.63058       -1.14279        2.59590
H          0.59898        0.24774        2.19763
H         -0.37855       -2.50849        2.49678
H          0.34759       -3.81602       -0.71512
H          0.39671       -3.05971       -2.32422
H          2.64799       -3.73327       -1.50064
H          2.53748       -2.00513       -1.85105
H          3.54965       -2.83895        0.38149
H          2.55735       -1.54196        0.40583
H         -1.00852       -1.70705       -0.97748
H         -0.01146       -1.76476        0.35805
C          0.68870       -2.94333       -1.27721
C          2.20129       -2.79374       -1.16166
N         -0.00648       -1.76262       -0.71917
N          2.59461       -2.54170        0.22171
H          0.43978       -0.88018       -0.99785
