37
2msa1ma1eda_563.log	Energy: -1013345.4609211
S         -3.00865       -0.72867       -0.24837
O         -3.15071        0.49566       -1.03191
O         -3.08093       -0.61667        1.20235
O         -1.70057       -1.50369       -0.67594
H         -0.86380       -0.96584       -0.43362
C         -4.21379       -1.90860       -0.80951
H         -5.19315       -1.48643       -0.58261
H         -4.09097       -2.04492       -1.88333
H         -4.06074       -2.84334       -0.27111
S          0.98508        0.19076        1.16098
O          1.47737       -1.03185        1.81237
O          0.34428       -0.09392       -0.17645
O          2.05988        1.21658        0.93889
H          2.59635        0.95683       -0.52046
C         -0.24747        0.95214        2.17847
H         -1.05287        0.22947        2.32357
H          0.22591        1.21355        3.12542
H         -0.61789        1.83297        1.64047
N         -1.49480        2.99854       -0.12853
H         -2.18647        2.28898       -0.36085
C         -0.49583        3.08378       -1.18921
H         -0.89630        3.37628       -2.17263
H          0.27953        3.80315       -0.90537
H         -0.02288        2.10268       -1.29002
H         -1.98540        3.87974       -0.02341
H          4.61803       -0.46181       -2.22884
H          4.96249        0.73049       -0.94583
H          5.16778       -1.68661       -0.15746
H          3.99011       -0.74119        0.75989
H          3.42541       -2.99774       -0.88295
H          2.45038       -2.19467        0.19190
H          2.83636        1.13694       -2.21353
H          2.27520       -0.30078       -1.55295
C          4.28967       -0.06892       -1.26290
C          4.19454       -1.18786       -0.21763
N          2.92563        0.49356       -1.43158
N          3.10672       -2.08829       -0.57815
