34
2msa1a1eda_126.log	Energy: -988703.7567938
S         -2.61568        0.19178       -0.32479
O         -2.61407       -0.48433       -1.61763
O         -2.33852        1.64962       -0.35205
O         -1.68179       -0.47867        0.67646
C         -4.23542        0.01204        0.39875
H         -4.94967        0.49279       -0.27023
H         -4.44883       -1.05319        0.48782
H         -4.23817        0.49394        1.37620
S          1.34473       -1.82786        0.01234
O          1.91968       -1.65158        1.34438
O          1.48810       -0.68047       -0.89945
O         -0.13414       -2.29162        0.08318
H         -0.83137       -1.50864        0.28858
C          2.08315       -3.24507       -0.75824
H          3.14900       -3.03814       -0.85648
H          1.91391       -4.10836       -0.11520
H          1.61935       -3.38226       -1.73448
N          0.36514        0.74669        2.50686
H          0.39348        1.19343        3.41654
H          1.03548       -0.02148        2.49844
H         -0.55673        0.33197        2.37199
H          1.06947        3.39275       -1.33583
H          0.82252        3.84051        0.37104
H          3.20127        3.76552       -0.09528
H          2.79462        2.44570        1.00725
H          4.25370        1.93962       -1.02497
H          2.96033        0.94298       -0.88930
H         -0.61489        1.96762       -0.28702
H          0.72965        1.05155       -0.63870
C          1.20738        3.07009       -0.30192
C          2.68237        2.80444       -0.02935
N          0.39905        1.85016       -0.07906
N          3.24167        1.90969       -1.03309
H          0.45186        1.53256        0.93125
