35
2msa1ma1dma_123.log	Energy: -978624.3025834
S          2.07915       -0.95683        0.07480
O          2.54879        0.42632       -0.20428
O          1.67638       -1.71447       -1.11252
O          0.99725       -0.92758        1.13179
C          3.44713       -1.80053        0.84272
H          3.72320       -1.26096        1.74842
H          3.12758       -2.81622        1.07625
H          4.27202       -1.81124        0.13002
S         -2.21102       -0.80897       -0.08642
O         -2.24356       -1.22495       -1.47847
O         -1.83944        0.59492        0.16752
O         -1.32730       -1.75165        0.78931
H         -0.33445       -1.43109        0.87657
C         -3.80044       -1.10196        0.64996
H         -4.52196       -0.49388        0.10377
H         -4.03074       -2.16177        0.54224
H         -3.75666       -0.81288        1.69934
N          0.55281        2.14344        1.64905
H          0.61287        1.12629        1.64160
C         -0.51804        2.58405        2.54045
H         -0.39187        2.27938        3.58989
H         -0.59697        3.67600        2.51411
H         -1.46314        2.17281        2.17670
H          1.45497        2.47190        1.97813
N          0.32821        1.65446       -1.31234
C          0.26464        3.12194       -1.45418
C          0.16980        0.90160       -2.57893
H          1.22529        1.37046       -0.85907
H         -0.69381        3.39613       -1.89822
H          0.36180        3.54761       -0.45559
H          1.07963        3.45480       -2.09889
H         -0.83320        1.07029       -2.97209
H          0.92315        1.24591       -3.28900
H          0.31556       -0.15999       -2.37550
H         -0.40594        1.35261       -0.64663
