35
2msa1ma1dma_283.log	Energy: -978617.0267993
S          1.15647       -1.55059        0.07244
O          2.34084       -1.92574        0.86911
O          1.48002       -0.91093       -1.22105
O          0.18600       -0.71375        0.86327
C          0.26319       -3.05064       -0.30338
H          0.90908       -3.68600       -0.91002
H          0.01221       -3.54725        0.63470
H         -0.63485       -2.77150       -0.85671
S         -2.77966        0.18332       -0.12155
O         -2.08310        1.43305        0.11836
O         -2.45314       -0.64159       -1.27187
O         -4.36288        0.55622       -0.25577
H         -4.68239        0.17849       -1.08752
C         -2.79685       -0.77841        1.36700
H         -1.74848       -1.02139        1.56382
H         -3.22572       -0.16482        2.15927
H         -3.39550       -1.67125        1.18805
N          3.58608        0.85561        0.58925
H          4.18973        1.27687        1.28831
C          4.28524        0.74066       -0.69873
H          5.24925        0.22345       -0.62233
H          3.64250        0.17675       -1.37814
H          4.45784        1.73698       -1.11794
H          3.34824       -0.08503        0.91850
N          0.98238        1.81207        0.15147
C          0.77621        2.15130       -1.27087
C          0.60838        2.87770        1.09615
H          0.45733        0.93762        0.37967
H          1.41641        2.99617       -1.53524
H          1.03643        1.26887       -1.85597
H         -0.27305        2.40435       -1.42615
H          1.21103        3.76706        0.89894
H         -0.45112        3.10551        0.97720
H          0.79541        2.52495        2.11136
H          1.99857        1.53115        0.31342
