40
2msa1dma1eda_193.log	Energy: -1038022.4786269
S          0.13559        2.13334        0.33826
O         -1.08770        2.65238       -0.28010
O          1.24287        1.84539       -0.61547
O         -0.12347        0.92982        1.20782
C          0.75652        3.38286        1.44852
H         -0.02035        3.59878        2.18208
H          1.65363        3.00051        1.93556
H          0.98533        4.27067        0.85839
S         -2.79037       -0.84271       -0.39651
O         -3.75259       -1.91361       -0.24821
O         -1.67635       -1.02850       -1.33488
O         -2.21437       -0.53987        1.04456
H         -1.41725        0.09143        1.04477
C         -3.61483        0.66708       -0.83761
H         -4.03737        0.52197       -1.83256
H         -4.40224        0.84092       -0.10422
H         -2.87564        1.47246       -0.83000
N          1.49312       -1.57394        1.53796
C          2.86428       -1.90197        1.91851
C          0.50730       -2.52380        2.05185
H          1.24716       -0.63816        1.85833
H          3.11589       -2.89269        1.52592
H          3.54739       -1.18069        1.46417
H          3.00813       -1.92264        3.00922
H          0.66264       -3.49981        1.58047
H          0.57974       -2.65581        3.14139
H         -0.49934       -2.17746        1.80785
H          2.57864       -2.32214       -1.59437
H          1.72130       -1.63360       -2.99228
H          4.07411       -0.80475       -2.75019
H          2.86594        0.48475       -2.77405
H          4.70370        0.44685       -0.96204
H          3.18072        0.82644       -0.51030
H          0.15643       -1.23851       -1.33801
H          1.29682       -1.21537       -0.08781
C          2.16637       -1.40426       -2.02118
C          3.25992       -0.35125       -2.17722
N          1.10519       -0.91823       -1.10641
N          3.76538        0.07531       -0.87372
H          1.06083        0.11785       -1.09212
