37
2msa1ma1eda_155.log	Energy: -1013362.6795801
S          0.34756        1.74132       -0.24111
O          1.15120        1.05465       -1.29626
O          0.35515        0.99621        1.03815
O         -1.02847        2.07103       -0.70211
H         -2.24615        1.09650       -0.81140
C          1.15283        3.30351        0.03873
H          1.16297        3.85408       -0.90185
H          0.58893        3.84459        0.79862
H          2.16728        3.09602        0.38284
S         -3.12933       -0.62531        0.19979
O         -4.46543       -1.17786        0.18955
O         -3.10275        0.55614       -0.84159
O         -2.01120       -1.54323       -0.06420
H         -0.34899       -1.62016       -0.58058
C         -2.80353        0.17446        1.75503
H         -3.57442        0.92893        1.91196
H         -2.85775       -0.59790        2.52322
H         -1.80376        0.61539        1.71528
N          0.64022       -1.63153       -0.88556
H          0.83018       -0.68577       -1.27206
C          0.90942       -2.71419       -1.84707
H          1.95609       -2.67402       -2.15177
H          0.70386       -3.67578       -1.37653
H          0.27026       -2.59560       -2.72190
H          1.24803       -1.68603       -0.01648
H          3.84879       -1.57402       -0.74797
H          5.31953       -1.07052        0.08739
H          3.94010       -2.48350        1.51497
H          4.14013       -0.85786        2.20333
H          1.83837       -1.76322        2.25520
H          1.91047       -0.34532        1.46516
H          4.62319        0.90139       -0.77406
H          3.02986        0.63283       -0.55580
C          4.23383       -0.93026        0.06297
C          3.67255       -1.42837        1.38964
N          3.94917        0.48574       -0.14259
N          2.20816       -1.32316        1.41806
