38
2msa2dma_113.log	Energy: -1003282.9013238
S          0.13285       -1.84299       -0.17252
O          1.42569       -2.54783       -0.39590
O         -0.35665       -1.10346       -1.34611
O          0.27254       -0.94920        1.03976
H         -0.24234        0.40538        1.01031
C         -1.08725       -3.05796        0.25582
H         -1.18192       -3.74579       -0.58502
H         -0.75024       -3.58126        1.15060
H         -2.01799       -2.50793        0.43329
S          0.10560        2.32728       -0.00133
O         -0.07784        3.69423        0.43465
O         -0.61209        1.37861        1.02536
O          1.48625        1.85137       -0.20801
H          2.35012        0.36143       -0.04196
C         -0.78967        2.05201       -1.51099
H         -1.83062        2.32515       -1.33369
H         -0.34840        2.69644       -2.27219
H         -0.69251        0.99444       -1.76654
N          3.05369       -0.39510        0.07806
C          3.44764       -0.42292        1.50346
C          4.16038       -0.17138       -0.87259
H          2.55074       -1.28808       -0.14923
H          3.87603        0.54253        1.77593
H          2.54780       -0.61776        2.08678
H          4.17804       -1.21839        1.65877
H          4.61959        0.79732       -0.67108
H          4.89898       -0.96679       -0.76286
H          3.75447       -0.18219       -1.88400
N         -3.25882       -0.46603        0.30038
C         -4.34623       -0.09004        1.18850
C         -3.64362       -0.47647       -1.10157
H         -2.48154        0.17288        0.43505
H         -5.12669       -0.85842        1.15671
H         -3.97601       -0.02666        2.21500
H         -4.81493        0.87541        0.92842
H         -4.40305       -1.24981       -1.26490
H         -4.06969        0.48257       -1.44941
H         -2.76993       -0.72035       -1.71115
