41
2msa1dma1tma_66.log	Energy: -1027939.8507058
S          0.20914       -1.66538       -0.53303
O          0.32286       -0.60147       -1.59428
O         -0.88487       -2.62674       -0.85385
O          0.05858       -1.07906        0.81081
H         -2.58467       -0.32934        0.22742
C          1.74084       -2.55626       -0.59752
H          1.85901       -2.95977       -1.60347
H          2.53321       -1.83802       -0.34928
H          1.68754       -3.35928        0.13842
S         -1.13624        2.15006       -0.01833
O         -0.66961        2.26104        1.35129
O         -2.32273        1.29862       -0.25124
O         -0.00259        1.75484       -1.00458
H          0.10198        0.70838       -1.21261
C         -1.52892        3.77353       -0.62746
H         -2.30978        4.17787        0.01710
H         -0.62699        4.38239       -0.56590
H         -1.87469        3.68549       -1.65670
N         -2.91512       -1.29871        0.41863
C         -4.24282       -1.47645       -0.19973
C         -2.86709       -1.53376        1.87783
H         -2.21458       -1.91891       -0.05863
H         -4.94547       -0.76571        0.23791
H         -4.15274       -1.29221       -1.27019
H         -4.58839       -2.49713       -0.02870
H         -3.54038       -0.83453        2.37617
H         -3.17074       -2.56133        2.08442
H         -1.83883       -1.36963        2.19984
N          3.66568       -0.00163        0.32609
C          5.05164       -0.31356        0.61950
H          5.10341       -1.07688        1.40219
H          5.54306       -0.70691       -0.27616
H          5.62112        0.57188        0.96431
C          3.56038        0.96141       -0.75695
H          4.01848        0.55263       -1.66321
H          2.50888        1.16749       -0.96563
H          4.06092        1.91937       -0.51598
C          2.96234        0.46272        1.51293
H          1.91049        0.64310        1.28118
H          3.00406       -0.30761        2.28882
H          3.40342        1.39262        1.92064
