38
2msa2dma_10.log	Energy: -1003303.3822602
S         -2.78316        0.09258       -0.16701
O         -2.66028        1.46470        0.40551
O         -3.04473       -0.95983        0.82963
O         -1.59999       -0.21498       -1.03000
C         -4.19472        0.14423       -1.25675
H         -5.07127        0.39453       -0.65863
H         -4.01700        0.90454       -2.01731
H         -4.30979       -0.83894       -1.71343
S          2.79108       -0.21414       -0.20573
O          2.70063       -1.69772       -0.11747
O          2.98920        0.46108        1.08906
O          1.62016        0.33969       -0.95831
C          4.22750        0.12499       -1.20856
H          5.09701       -0.29422       -0.70189
H          4.08515       -0.34475       -2.18178
H          4.32798        1.20566       -1.31141
N         -0.00835        2.13390        0.26153
C          0.36736        3.34252       -0.49554
C          0.33688        2.19004        1.69938
H         -1.03463        1.94891        0.18398
H          1.44051        3.50739       -0.38854
H          0.12627        3.18256       -1.54621
H         -0.18484        4.20129       -0.11038
H          1.41920        2.11076        1.81106
H         -0.04702        3.11870        2.12472
H         -0.14415        1.34720        2.19611
H          0.49743        1.32820       -0.18133
N         -0.00083       -2.08934        0.17232
C         -0.73363       -3.32027       -0.18498
C         -0.01548       -1.79279        1.62405
H          0.99801       -2.11789       -0.12460
H         -1.77359       -3.19863        0.12241
H         -0.67971       -3.45825       -1.26488
H         -0.27973       -4.17366        0.32145
H         -1.04382       -1.58654        1.92523
H          0.38952       -2.65026        2.16344
H          0.63123       -0.93258        1.80380
H         -0.45670       -1.29682       -0.33783
