35
2msa1ma1dma_317.log	Energy: -978615.3676454
S          2.80009       -0.29223       -0.19948
O          3.94352       -1.12060       -0.52031
O          2.16170       -0.42516        1.11214
O          1.70744       -0.54328       -1.32031
H          0.81244       -0.18346       -1.01712
C          3.21743        1.42196       -0.43225
H          3.94856        1.68251        0.33401
H          3.64865        1.52989       -1.42745
H          2.30676        2.01805       -0.32999
S         -0.82105        1.58234        0.20466
O          0.07111        2.65817       -0.22150
O         -0.59298        0.28118       -0.51338
O         -2.28527        1.90672        0.12140
H         -3.07569        0.67710       -0.35211
C         -0.49966        1.25824        1.92736
H          0.55139        0.98204        2.02309
H         -0.72564        2.16828        2.48378
H         -1.13415        0.42963        2.24530
N         -0.42098       -2.24546        1.41891
H          0.32245       -1.54868        1.41388
C         -0.30908       -3.05173        0.20266
H          0.66369       -3.54395        0.07183
H         -1.08854       -3.82139        0.19584
H         -0.46422       -2.40404       -0.66492
H         -0.25148       -2.82926        2.23213
N         -3.61885       -0.22638       -0.58609
C         -3.45271       -1.15516        0.56180
C         -3.13488       -0.77274       -1.87677
H         -4.59847        0.04011       -0.67409
H         -2.38546       -1.34972        0.72501
H         -3.87133       -0.68029        1.45004
H         -3.97906       -2.08910        0.35462
H         -2.06713       -0.95659       -1.77167
H         -3.67403       -1.69257       -2.11035
H         -3.29555       -0.02692       -2.65550
