38
2msa2dma_187.log	Energy: -1003274.6038602
S         -0.77072       -1.44489       -0.08230
O          0.42924       -2.22413       -0.50362
O         -1.51318       -0.83733       -1.20389
O         -0.41794       -0.43899        0.96933
H         -0.21455        1.04866        0.34109
C         -1.86501       -2.61058        0.69972
H         -2.08006       -3.39770       -0.02355
H         -1.36195       -3.01832        1.57646
H         -2.78117       -2.08126        0.97148
S          3.05755        0.03692        0.08294
O          3.22197        0.72510        1.35436
O          2.14267        0.64440       -0.88810
O          2.68961       -1.46714        0.30655
H          1.74829       -1.73001       -0.03241
C          4.65889       -0.13710       -0.67266
H          5.06140        0.86484       -0.82477
H          5.29402       -0.70598        0.00627
H          4.53670       -0.65762       -1.62205
N         -0.39771        2.06037        0.07909
C         -0.48968        2.19065       -1.39680
C          0.60867        2.94125        0.71577
H         -1.31870        2.24085        0.48180
H          0.49442        1.98043       -1.81183
H         -1.19624        1.44205       -1.75610
H         -0.81276        3.20317       -1.64626
H          1.58003        2.70595        0.28518
H          0.34426        3.98460        0.53380
H          0.63404        2.73160        1.78487
N         -4.13161        0.01555        0.12116
C         -3.63085        1.00739        1.04630
C         -5.33424        0.43622       -0.57199
H         -3.40291       -0.23970       -0.54189
H         -4.35717        1.17317        1.84990
H         -2.70148        0.64763        1.49980
H         -3.45281        2.00057        0.57442
H         -6.15449        0.54872        0.14618
H         -5.22216        1.39857       -1.10543
H         -5.62645       -0.32626       -1.29807
