28
2msa1dma_71.log	Energy: -918452.3243513
S          2.03938       -0.67460       -0.09846
O          2.90518        0.46470       -0.30846
O          1.01424       -0.98679       -1.10617
O          1.35631       -0.60317        1.32824
H          0.36849       -0.51425        1.24663
C          3.04686       -2.12391        0.09939
H          3.58051       -2.27019       -0.84013
H          3.74691       -1.93989        0.91430
H          2.39886       -2.97168        0.31842
S         -2.23749       -0.35539        0.10867
O         -2.87997        0.92817        0.30989
O         -1.29254       -0.84118        1.12298
O         -1.53764       -0.39508       -1.30991
H         -0.54769       -0.51070       -1.22320
C         -3.49275       -1.59235       -0.10530
H         -4.06968       -1.62521        0.81944
H         -4.12370       -1.29163       -0.94164
H         -3.00806       -2.54856       -0.29858
N          0.04081        2.01870        0.06438
C          0.40886        2.54206       -1.24470
C          0.78221        2.65496        1.14536
H         -0.95276        2.16931        0.21243
H          1.45735        2.30257       -1.44492
H         -0.20424        2.06537       -2.01473
H          0.28350        3.63536       -1.32791
H          1.84586        2.42441        1.03474
H          0.66683        3.75232        1.16413
H          0.44611        2.25383        2.10574
