34
2msa1a1eda_123.log	Energy: -988704.9738359
S          1.18123       -1.82766       -0.15602
O          0.37741       -2.23151        1.00362
O          2.47207       -1.18025        0.14726
O          0.37777       -0.96256       -1.11706
C          1.55009       -3.30194       -1.09103
H          0.60879       -3.78667       -1.35090
H          2.09941       -3.01423       -1.98735
H          2.15505       -3.95207       -0.45843
S         -2.63916        0.07401        0.21341
O         -4.01180        0.46590       -0.03719
O         -1.64093        1.13325        0.41084
O         -2.18130       -0.84048       -0.98922
H         -1.16896       -0.93668       -1.02296
C         -2.56442       -1.01476        1.61444
H         -1.54886       -1.41389        1.68289
H         -2.82642       -0.42581        2.49430
H         -3.29074       -1.81141        1.45290
N         -0.94411        3.62947       -1.04909
H         -0.99040        4.55203       -0.62930
H         -1.62854        3.03417       -0.58072
H         -1.23107        3.72126       -2.01837
H          2.80933        0.85773       -1.05780
H          2.56120        2.57182       -1.48301
H          4.28666        2.09832        0.36696
H          3.03646        3.27442        0.80177
H          2.88817        0.42589        1.53812
H          3.09917        1.71154        2.56961
H          0.63430        0.78022       -0.77519
H          0.94486        1.53501        0.65028
C          2.44934        1.82229       -0.69729
C          3.21362        2.21764        0.57094
N          1.01029        1.65932       -0.37284
N          2.71234        1.41973        1.68167
H          0.40119        2.46293       -0.65742
