37
2msa1ma1eda_382.log	Energy: -1013354.2488900
S         -2.08811       -1.33928       -0.16545
O         -3.18988       -2.26816        0.03402
O         -0.94038       -1.54672        0.80103
O         -2.46530        0.10763       -0.12339
H         -1.62745        0.92578        1.02649
C         -1.40283       -1.62269       -1.78906
H         -1.13841       -2.67842       -1.86177
H         -2.17444       -1.37594       -2.51884
H         -0.51960       -0.99563       -1.92418
S          2.21789       -0.85361       -0.06936
O          2.23247        0.10626        1.04333
O          1.80313       -0.32514       -1.36530
O          1.39647       -2.12224        0.31503
H          0.37520       -1.90074        0.49858
C          3.83312       -1.57620       -0.21758
H          4.51809       -0.77317       -0.49083
H          4.10614       -2.01123        0.74324
H          3.79710       -2.33564       -0.99799
N         -1.18288        1.53501        1.76898
H         -0.44780        2.14278        1.30003
C         -0.56277        0.72530        2.84656
H         -0.26553        1.38369        3.66418
H         -1.27333       -0.02418        3.19165
H          0.31259        0.22798        2.43156
H         -1.92553        2.12934        2.13139
H         -0.27844        1.21273       -1.11321
H         -0.19047        2.13516       -2.60847
H          1.79584        2.65526       -1.46316
H          0.75392        4.06275       -1.18352
H          1.55371        1.99154        0.69174
H          1.46190        3.60508        0.92376
H         -2.33549        2.26180       -1.24187
H         -1.54164        3.36556       -0.33353
C         -0.30862        2.23150       -1.52385
C          0.88178        2.99699       -0.96627
N         -1.56595        2.92445       -1.24719
N          0.98181        2.81761        0.50040
