34
2msa1a1eda_95.log	Energy: -988706.6895723
S          1.77721       -1.21722       -0.25154
O          1.36187       -0.24372       -1.27726
O          1.16555       -2.56674       -0.41572
O          1.56726       -0.70022        1.13787
H         -0.25315       -2.49487        2.32759
C          3.53360       -1.46152       -0.44004
H          3.71021       -1.86271       -1.43817
H          4.02712       -0.49649       -0.32105
H          3.86958       -2.16417        0.32243
S         -2.61192        0.16695       -0.23419
O         -4.05777        0.00330       -0.12717
O         -1.86713       -0.35998        0.98371
O         -2.12544        1.53934       -0.52193
H         -0.53997        1.75404        0.25226
C         -2.04710       -0.84631       -1.59484
H         -2.33978       -1.88155       -1.41085
H         -2.53776       -0.47834       -2.49665
H         -0.96277       -0.75053       -1.68140
N         -0.76661       -2.63613        1.46072
H         -0.05501       -2.75993        0.69335
H         -1.31900       -1.72740        1.24124
H         -1.38405       -3.43817        1.54335
H          2.69387        1.87568        0.32684
H          2.69411        3.64222        0.32377
H          1.46439        2.69196        2.27142
H          0.42645        3.71530        1.23691
H          0.56032        0.74822        1.06452
H         -0.62263        1.57713        1.86004
H          1.97111        3.33148       -1.79324
H          1.29096        1.86626       -1.48920
C          2.05864        2.76253        0.18333
C          1.00259        2.78896        1.28509
N          1.42525        2.80596       -1.12382
N          0.05854        1.66137        1.10613
