35
2msa1ma1dma_240.log	Energy: -978618.3488363
S          0.90519        0.83638        0.64278
O          0.81730       -0.61250        0.27984
O         -0.23481        1.27288        1.47791
O          1.07114        1.70047       -0.56739
H         -0.39203        2.14146       -1.10862
C          2.40366        0.99655        1.57838
H          2.28836        0.40644        2.48821
H          3.23216        0.61777        0.96663
H          2.53212        2.05243        1.81817
S         -2.60754       -1.31787       -0.15940
O         -3.61010       -2.30617       -0.48759
O         -2.76901        0.02467       -0.74726
O         -1.20804       -1.90418       -0.56526
H         -0.42065       -1.33087       -0.25849
C         -2.49282       -1.11032        1.60255
H         -3.46194       -0.74003        1.93981
H         -2.28026       -2.08520        2.04125
H         -1.70290       -0.38406        1.81483
N         -1.42188        2.32556       -1.28620
H         -1.55886        2.61158       -2.25274
C         -1.93330        3.32720       -0.32061
H         -3.00873        3.44486       -0.45222
H         -1.70623        2.95128        0.67702
H         -1.42492        4.27755       -0.48272
H         -1.90440        1.41337       -1.13716
N          4.45180       -0.72735       -0.37240
C          3.87895       -0.46138       -1.68610
C          3.99402       -1.99242        0.18863
H          5.46396       -0.72592       -0.43439
H          2.79540       -0.35096       -1.58741
H          4.27761        0.47812       -2.07847
H          4.07638       -1.26262       -2.41920
H          2.91281       -1.93572        0.34918
H          4.19833       -2.85996       -0.46215
H          4.47704       -2.16232        1.15548
