38
2msa2dma_160.log	Energy: -1003279.3759379
S          2.02397        1.67170       -0.02814
O          2.60044        1.10600       -1.24343
O          2.18873        0.84557        1.18278
O          0.53966        2.07514       -0.21914
H         -0.10983        1.27919       -0.51935
C          2.73761        3.26487        0.29125
H          2.25978        3.68788        1.17425
H          3.80271        3.10762        0.46259
H          2.57362        3.89120       -0.58510
S         -1.04332       -1.09750       -0.52979
O         -1.04402        0.34790       -0.95160
O         -0.94073       -1.26480        0.92963
O          0.00295       -1.87491       -1.25883
H          1.34288       -1.88689       -0.30296
C         -2.61799       -1.70431       -1.07892
H         -3.40168       -1.12915       -0.57033
H         -2.67002       -1.56806       -2.15942
H         -2.67081       -2.76261       -0.82101
N          2.12711       -1.85684        0.40352
C          3.42256       -2.00869       -0.29035
C          1.84991       -2.86331        1.44925
H          2.08452       -0.90543        0.81555
H          3.44321       -2.97270       -0.80081
H          3.51628       -1.19579       -1.01137
H          4.23159       -1.95603        0.44030
H          1.87342       -3.85668        0.99845
H          2.60625       -2.79120        2.23269
H          0.85648       -2.65921        1.84983
N         -4.57235        0.54373        0.43973
C         -4.21296        1.62526       -0.46890
C         -3.87204        0.63105        1.71530
H         -5.57367        0.55068        0.59991
H         -3.15359        1.53400       -0.72728
H         -4.79515        1.54134       -1.39121
H         -4.37756        2.62879       -0.03901
H         -2.80080        0.47837        1.55395
H         -4.00929        1.60287        2.22101
H         -4.22094       -0.16201        2.38236
