37
2msa1ma1eda_573.log	Energy: -1013346.6410656
S         -2.73968        0.17636       -0.63697
O         -4.15415        0.17343       -0.94776
O         -2.32683        0.09256        0.77292
O         -2.10526        1.49015       -1.24624
H         -1.27165        1.79181       -0.72219
C         -1.92438       -1.12769       -1.52456
H         -2.20671       -2.06834       -1.04490
H         -2.26188       -1.08650       -2.56023
H         -0.84502       -0.97043       -1.46003
S          2.51456       -0.24723       -0.72961
O          1.29222       -0.50324       -1.50020
O          2.71314       -1.14376        0.43821
O          2.60874        1.19863       -0.27986
H          2.20858        1.15764        1.29295
C          3.89875       -0.48985       -1.82340
H          3.86539       -1.52202       -2.17298
H          3.79302        0.20260       -2.65857
H          4.81806       -0.29681       -1.27099
N         -1.63437       -2.86193        1.33447
H         -2.07180       -1.95247        1.45548
C         -0.18306       -2.74231        1.31588
H          0.25971       -2.29630        2.22490
H          0.27087       -3.72823        1.18419
H          0.13204       -2.13751        0.46106
H         -1.94761       -3.46827        2.08318
H          0.31217        2.97178        2.17787
H         -1.28103        2.29024        1.80947
H         -0.23525        0.50430        2.89106
H         -0.02618        0.10828        1.18769
H          2.03809        1.19720        3.00783
H          2.04747       -0.22743        2.09975
H         -0.14747        3.45424       -0.07331
H          0.85180        2.15624       -0.22188
C         -0.21736        2.22251        1.56902
C          0.23971        0.82586        1.96350
N         -0.06127        2.46217        0.12724
N          1.72341        0.75131        2.14912
