38
2msa1ma1tma_38.log	Energy: -1003282.3715175
S         -0.78977       -1.81882       -0.55051
O         -2.17435       -2.29033       -0.58571
O         -0.29569       -1.62209        0.86414
O         -0.53440       -0.58996       -1.35855
H         -0.82206        0.91668       -0.88789
C          0.26650       -3.06608       -1.25089
H          0.14427       -3.97734       -0.66506
H         -0.04254       -3.22666       -2.28396
H          1.28942       -2.69036       -1.19806
S          2.60911        0.23600        0.37002
O          2.47384        1.54582       -0.26748
O          2.75287       -0.93785       -0.48036
O          1.43177        0.04657        1.38571
H          0.72697       -0.69878        1.10887
C          4.00113        0.31678        1.47589
H          4.88371        0.51750        0.86768
H          3.83305        1.12415        2.18828
H          4.09105       -0.64279        1.98422
N         -2.87111        0.05607        1.40854
H         -3.20420       -0.65882        0.76431
C         -3.87607        0.33394        2.43266
H         -4.19079       -0.54687        3.01033
H         -3.48784        1.07659        3.13711
H         -4.76732        0.76425        1.96513
H         -2.04313       -0.36513        1.82345
N         -1.01693        1.95543       -0.90214
C         -2.45611        2.09171       -1.23199
H         -2.64671        1.57621       -2.17391
H         -3.02113        1.61981       -0.42577
H         -2.70219        3.15254       -1.32357
C         -0.70780        2.52096        0.43477
H         -1.33906        2.00643        1.16058
H          0.34656        2.34648        0.64682
H         -0.92382        3.59251        0.41994
C         -0.13754        2.50922       -1.96087
H          0.89890        2.31699       -1.68090
H         -0.36651        2.00270       -2.89901
H         -0.32273        3.58209       -2.05485
