38
2msa1ma1tma_100.log	Energy: -1003277.7228270
S         -1.86241       -1.14435        0.45711
O         -0.86430       -2.17785        0.20259
O         -3.26159       -1.55114        0.59430
O         -1.76775       -0.05999       -0.67781
H         -2.74311        0.19480       -1.03354
C         -1.36879       -0.24534        1.90643
H         -1.37200       -0.95383        2.73623
H         -0.36711        0.17125        1.74422
H         -2.09884        0.54581        2.08159
S          1.71681        1.85842        0.13624
O          2.78621        2.85197        0.23727
O          1.49288        1.04251        1.35890
O          1.85646        0.94905       -1.06070
H          2.13562       -0.48587       -0.58746
C          0.19170        2.74353       -0.16356
H          0.00820        3.39733        0.69022
H          0.31658        3.33105       -1.07373
H         -0.60595        2.00912       -0.28518
N         -4.15105        0.50698       -1.40803
H         -4.27003        0.86141       -2.35215
C         -4.72243        1.42752       -0.41363
H         -5.78635        1.62610       -0.57667
H         -4.59538        0.98206        0.57505
H         -4.17556        2.37228       -0.44431
H         -4.60884       -0.39981       -1.35180
N          2.57137       -1.45921       -0.42526
C          1.99126       -2.36244       -1.44532
H          0.91951       -2.44491       -1.26142
H          2.16822       -1.93019       -2.43107
H          2.46611       -3.34451       -1.37280
C          4.02089       -1.23877       -0.63028
H          4.17495       -0.82075       -1.62517
H          4.36983       -0.51963        0.11156
H          4.55344       -2.18728       -0.52385
C          2.27919       -1.91528        0.95516
H          2.58423       -1.13028        1.64660
H          1.20562       -2.07906        1.04193
H          2.82192       -2.84638        1.14191
