37
2msa1ma1eda_445.log	Energy: -1013350.4472870
S         -1.74130       -1.54552       -0.45355
O         -2.36308       -0.47317       -1.22535
O         -1.45205       -1.26245        0.95289
O         -0.46013       -2.08940       -1.17298
H          0.38779       -1.51228       -0.97840
C         -2.76887       -2.99155       -0.55968
H         -3.71839       -2.74112       -0.08578
H         -2.91554       -3.23096       -1.61261
H         -2.27641       -3.80895       -0.03418
S          2.48412       -0.80139        0.45673
O          3.81947       -1.25269        0.08327
O          1.54265       -0.68815       -0.71881
O          2.45804        0.48838        1.21897
H          2.18831        1.79024        0.42575
C          1.76381       -2.00887        1.55143
H          1.78823       -2.97481        1.04516
H          2.37395       -2.03781        2.45448
H          0.73729       -1.71287        1.77271
N         -2.59013        1.71337        1.00532
H         -2.97512        1.26244        0.17878
C         -3.65230        2.23728        1.86108
H         -4.37882        1.48188        2.19303
H         -3.21057        2.69512        2.75062
H         -4.19914        3.02039        1.32723
H         -2.07931        0.97284        1.47951
H          1.67780        3.22624       -2.14619
H          1.91952        1.47006       -1.87155
H         -0.53829        2.11302       -2.23162
H         -0.20329        1.27335       -0.72484
H         -0.86886        4.08458       -0.99464
H         -1.29633        2.96868        0.16118
H          2.93356        3.17781       -0.19404
H          1.31811        3.27917        0.30575
C          1.46536        2.38247       -1.48354
C         -0.03920        2.21128       -1.26171
N          2.04452        2.68781       -0.14623
N         -0.52890        3.31163       -0.43346
