37
2msa1ma1eda_459.log	Energy: -1013351.9319870
S          0.56175        1.91388       -0.31298
O         -0.53836        2.86322       -0.04318
O          0.51741        1.25213       -1.61095
O          0.62774        0.87304        0.84943
H         -0.07956        0.09777        0.74706
C          2.11315        2.73100       -0.09375
H          2.17872        3.49927       -0.86492
H          2.13198        3.17411        0.90173
H          2.87971        1.95571       -0.22080
S         -1.75400       -1.68239       -0.29474
O         -2.17905       -3.00425        0.14092
O         -1.05580       -0.91292        0.81281
O         -2.84320       -0.82319       -0.86104
H         -2.94462        0.62920       -0.30396
C         -0.55241       -1.86810       -1.59586
H          0.32704       -2.35720       -1.17337
H         -1.01307       -2.47173       -2.37846
H         -0.28798       -0.87573       -1.96361
N         -3.01799        1.58353        0.18026
H         -2.13439        2.10665        0.01383
C         -3.22516        1.37557        1.63411
H         -3.20996        2.33534        2.15014
H         -4.17898        0.87189        1.78906
H         -2.41989        0.73337        1.99004
H         -3.78317        2.10401       -0.24270
H          4.46568       -2.03035       -0.10517
H          4.93642       -0.58050        0.79505
H          3.48248       -1.88909        2.20479
H          2.60133       -0.43705        1.70112
H          2.13885       -3.14895        0.75101
H          1.05116       -2.02129        1.22810
H          4.15892       -0.15043       -1.52912
H          2.65766       -0.57049       -1.03882
C          4.09073       -1.07760        0.30535
C          3.01796       -1.38359        1.34523
N          3.54672       -0.18830       -0.72105
N          1.93157       -2.15614        0.74052
