37
2msa1ma1eda_567.log	Energy: -1013346.3861524
S         -2.74419       -1.18230        0.02411
O         -3.99855       -1.90708       -0.01291
O         -2.45205       -0.32548        1.17690
O         -2.65173       -0.30318       -1.28700
H         -2.08648        0.54600       -1.15112
C         -1.40064       -2.33009       -0.17095
H         -1.38713       -2.96295        0.71749
H         -1.59718       -2.92430       -1.06348
H         -0.47089       -1.76621       -0.27622
S          1.99665        0.53786       -0.48738
O          1.10796       -0.47378       -1.06965
O          2.11687        0.47920        0.99625
O          1.58994        1.94388       -0.89702
H          0.99752        2.60996        0.38588
C          3.62262        0.28284       -1.15904
H          3.95816       -0.69644       -0.80336
H          3.54532        0.31380       -2.24595
H          4.27594        1.07397       -0.79070
N          3.51381       -2.33976        0.95005
H          4.07597       -2.77925        1.67032
C          2.50789       -3.26794        0.43595
H          1.80316       -3.64439        1.19356
H          1.92961       -2.76303       -0.34240
H          3.00515       -4.12854       -0.02147
H          3.06537       -1.52494        1.36253
H         -1.56142        3.77368        0.15820
H         -2.72447        2.48010        0.48031
H         -1.29000        2.34075        2.31794
H         -0.72517        1.04956        1.25796
H          0.57068        3.67816        1.68008
H          1.17437        2.12462        1.92353
H         -1.84541        2.52429       -1.82075
H         -0.40041        1.97274       -1.26667
C         -1.68209        2.68065        0.21896
C         -0.82849        2.13087        1.35197
N         -1.40210        2.01628       -1.06085
N          0.55010        2.71304        1.35834
