40
2msa1dma1eda_146.log	Energy: -1038025.2814168
S          2.75478        0.01496       -0.55275
O          3.27289       -0.95179        0.43713
O          3.05319        1.43042       -0.26612
O          1.28120       -0.21070       -0.78401
H          0.78547       -1.09834        0.49819
C          3.54068       -0.35841       -2.11241
H          4.61295       -0.20497       -1.98792
H          3.32872       -1.39634       -2.36947
H          3.14236        0.31864       -2.86830
S         -2.77780       -0.75507       -0.48834
O         -4.03575       -1.47929       -0.34806
O         -2.01895       -0.57314        0.79219
O         -2.90761        0.56202       -1.19722
H         -2.22318        1.82473       -0.70911
C         -1.70964       -1.72646       -1.54630
H         -1.62386       -2.72486       -1.11303
H         -2.18382       -1.79463       -2.52574
H         -0.73617       -1.23473       -1.61900
N          0.39284       -1.68629        1.28370
C          0.90154       -1.17227        2.57212
C          0.75862       -3.09088        1.02229
H         -0.63270       -1.51367        1.21031
H          1.99112       -1.14540        2.52324
H          0.51327       -0.16450        2.71764
H          0.55643       -1.81743        3.38212
H          1.84724       -3.16344        1.01515
H          0.33261       -3.73468        1.79387
H          0.37098       -3.37877        0.04496
H         -1.69082        3.59100        1.62472
H         -2.15316        1.85832        1.57769
H          0.30274        2.22138        2.18436
H          0.04533        1.23279        0.73088
H          0.98713        3.98026        0.76452
H          1.53963        2.67383       -0.06478
H         -2.65814        3.43489       -0.45650
H         -1.03443        3.11396       -0.76456
C         -1.52799        2.63088        1.12712
C         -0.04963        2.24067        1.14484
N         -1.90142        2.77305       -0.30637
N          0.69532        3.14213        0.27278
