34
2msa1a1eda_308.log	Energy: -988690.8667014
S         -1.18874       -1.48278       -0.24096
O         -0.82898       -1.47285        1.18254
O         -0.75383       -0.23778       -0.96245
O         -2.65193       -1.67518       -0.48852
H         -3.20119       -0.16167       -0.64170
C         -0.33044       -2.82913       -1.02120
H          0.73730       -2.62379       -0.92090
H         -0.60752       -3.75237       -0.51203
H         -0.61846       -2.85772       -2.07185
S          2.61999        0.70253       -0.47029
O          3.21714        1.59607       -1.44644
O          2.55675       -0.72782       -0.76317
O          1.14397        1.20648       -0.13636
H          0.44774        0.54406       -0.47729
C          3.40660        0.95349        1.10209
H          4.46751        0.74581        0.95372
H          3.26186        1.99554        1.38762
H          2.96848        0.25160        1.81942
N          2.10551       -1.84232        2.15898
H          1.10724       -1.73821        1.98458
H          2.23372       -2.61585        2.80186
H          2.53349       -2.09019        1.27127
H         -4.25058        2.24558        0.74295
H         -3.93005        0.62155        1.40557
H         -2.22731        2.38826        2.12256
H         -1.50950        0.99632        1.31385
H         -1.75240        3.67829        0.23039
H         -0.59484        2.53687       -0.02894
H         -4.32669        0.99448       -1.16697
H         -2.69679        1.40273       -1.09024
C         -3.55141        1.40549        0.74777
C         -2.14737        1.86991        1.16011
N         -3.46605        0.86994       -0.64063
N         -1.59248        2.68852        0.08718
