43
2msa1eda1tma_87.log	Energy: -1062682.7267823
S          0.22295        2.51037       -0.50748
O          0.84021        3.81946       -0.47235
O         -0.35558        2.22372        0.93609
O          1.03491        1.36237       -0.92468
H          0.63067       -0.72010       -1.29516
C         -1.22968        2.55239       -1.53117
H         -1.84172        3.39447       -1.20743
H         -0.89374        2.69360       -2.55923
H         -1.76385        1.60602       -1.40952
S         -2.42713       -0.64437        0.84601
O         -2.63940       -2.07147        1.09372
O         -2.70232       -0.19042       -0.53510
O         -1.02448       -0.22406        1.26569
H         -0.61651        1.24418        1.05595
C         -3.50843        0.28168        1.92064
H         -4.53590        0.02699        1.65927
H         -3.29127       -0.00124        2.95063
H         -3.32406        1.34508        1.76358
H         -1.52748       -2.90164       -0.84018
H         -0.82415       -3.85064       -2.14886
H          0.72921       -3.43890       -0.15091
H          1.40083       -2.96133       -1.72887
H          0.13871       -1.09466        0.21887
H          1.78879       -1.17917       -0.14666
H         -1.21793       -2.07212       -3.48836
H         -1.76361       -1.18406       -2.20630
C         -0.77342       -2.88585       -1.63396
C          0.61435       -2.75671       -0.99674
N         -1.00462       -1.76882       -2.54820
N          0.81197       -1.37201       -0.52287
N          3.27350       -0.75017        0.63681
C          2.80444        0.02452        1.78646
H          2.22428        0.87978        1.43395
H          2.15771       -0.59755        2.41228
H          3.64269        0.39122        2.40058
C          4.02496       -1.92562        1.06263
H          3.39866       -2.55274        1.70419
H          4.32297       -2.51096        0.18765
H          4.93437       -1.65444        1.62449
C          4.05757        0.08671       -0.27095
H          4.36008       -0.50167       -1.14244
H          3.44191        0.92276       -0.61006
H          4.96479        0.47860        0.21746
