35
2msa1ma1dma_302.log	Energy: -978613.8454957
S         -2.88737       -0.79982       -0.09862
O         -4.16680       -1.34398        0.34791
O         -1.98608       -0.31317        0.98104
O         -3.03597        0.28207       -1.15092
H         -2.38250        1.50948       -0.74781
C         -2.00895       -2.10847       -0.94155
H         -1.87672       -2.92939       -0.23488
H         -2.61848       -2.43403       -1.78489
H         -1.04609       -1.72150       -1.28096
S          1.82250       -0.64187        0.16211
O          1.16258       -0.57256       -1.13582
O          2.08905        0.63053        0.84551
O          3.18086       -1.42996        0.03884
H          3.99740       -0.76313        0.15295
C          0.88085       -1.70007        1.22627
H         -0.11310       -1.24982        1.32885
H          0.81311       -2.67871        0.75004
H          1.39395       -1.76802        2.18517
N          5.03221        0.33436        0.29304
H          4.63712        0.90154        1.03981
C          5.07165        1.10201       -0.96110
H          5.69215        2.00159       -0.89376
H          5.45406        0.46235       -1.75880
H          4.05102        1.39346       -1.21733
H          5.96166        0.04138        0.57742
N         -1.93497        2.45277       -0.38424
C         -0.49117        2.23424       -0.13127
C         -2.69028        2.85740        0.82232
H         -2.06032        3.14241       -1.12292
H         -0.40498        1.50438        0.67089
H         -0.02815        1.81764       -1.02563
H         -0.01264        3.17365        0.15277
H         -2.61364        2.04021        1.54111
H         -2.27154        3.77714        1.23676
H         -3.73697        3.00233        0.55332
