40
2msa1dma1eda_93.log	Energy: -1038031.1990256
S          1.95454       -1.25560       -0.05653
O          1.87885       -0.67550       -1.42137
O          0.98170       -2.32089        0.23366
O          1.91041       -0.17128        0.98469
H          0.41135       -0.47524        1.81625
C          3.57865       -1.98748        0.06917
H          3.65357       -2.76475       -0.69186
H          4.32533       -1.21150       -0.10089
H          3.68613       -2.41685        1.06543
S         -2.45031       -0.58701       -0.63060
O         -3.70176       -0.16129       -1.25333
O         -2.58426       -0.88666        0.84113
O         -1.30659        0.35638       -0.82641
H         -1.09273        1.51674        0.61034
C         -1.94084       -2.11873       -1.38743
H         -2.72566       -2.85548       -1.21229
H         -1.81877       -1.93782       -2.45588
H         -0.99478       -2.42354       -0.93585
N          0.96980        1.92102       -1.25450
C          2.31463        2.49973       -1.07173
C          0.25524        2.37744       -2.46526
H          1.07176        0.88195       -1.28977
H          2.23174        3.58296       -0.96544
H          2.74956        2.05849       -0.17443
H          2.93152        2.25185       -1.93655
H          0.13428        3.46172       -2.42506
H          0.83542        2.09857       -3.34636
H         -0.71505        1.88134       -2.47676
H         -1.72302        0.92930        3.29025
H         -0.14863        0.66386        4.07584
H         -0.04843        2.82620        3.02879
H          1.01108        1.72203        2.15990
H         -1.45310        2.97535        1.25676
H          0.39050        2.14553       -0.41524
H         -0.48566       -1.30120        2.94787
H         -1.30722       -0.64294        1.65064
C         -0.65465        0.77928        3.11335
C         -0.03902        1.96028        2.36016
N         -0.49179       -0.48357        2.34245
N         -0.69195        2.32341        1.10374
