44
2msa2tma_25.log	Energy: -1052601.8535093
S          2.91820       -0.33488       -0.35264
O          2.75264        1.00375       -0.98928
O          2.60114       -1.46719       -1.24138
O          2.19204       -0.41736        0.95030
C          4.65651       -0.43677        0.03270
H          5.21105       -0.35802       -0.90247
H          4.91194        0.38402        0.70280
H          4.84198       -1.39883        0.51081
S         -0.28076        2.16301        0.20469
O         -0.63034        0.74277        0.26252
O         -1.36825        3.12235        0.15796
O          0.63808        2.43560       -1.04210
H          1.44387        1.81219       -1.06031
C          0.78016        2.51318        1.58950
H          1.57536        1.76437        1.59180
H          1.16774        3.52543        1.47616
H          0.16922        2.43122        2.48946
N         -3.65844       -0.50709       -0.30927
C         -3.48103        0.14071       -1.59902
H         -2.71491        0.91513       -1.51665
H         -3.15574       -0.59414       -2.34338
H         -4.41350        0.60789       -1.96754
C         -4.62314       -1.58719       -0.38866
H         -4.29356       -2.32756       -1.12517
H         -4.70765       -2.08393        0.58381
H         -5.63242       -1.23898       -0.68178
C         -4.02803        0.46375        0.70866
H         -4.08981       -0.02853        1.68580
H         -3.26880        1.24778        0.75819
H         -5.00699        0.93678        0.50387
N         -0.04353       -2.04376        0.51709
C          0.85076       -3.19472        0.79788
H          1.65840       -3.17950        0.06601
H          1.26242       -3.07923        1.80061
H          0.27123       -4.11774        0.72581
C         -1.14721       -1.94318        1.50454
H         -0.71614       -1.74930        2.48747
H         -1.80882       -1.13417        1.19547
H         -1.69281       -2.88988        1.51256
C         -0.55837       -2.07994       -0.87856
H         -1.20716       -1.21711       -1.01533
H          0.29847       -2.03704       -1.55144
H         -1.12174       -3.00637       -1.01361
H          0.55271       -1.19287        0.61300
