34
2msa1a1eda_264.log	Energy: -988694.8580946
S         -2.57799        0.36017       -0.17004
O         -2.46157        1.66744       -0.80198
O         -2.02769        0.22207        1.18134
O         -2.00132       -0.76711       -1.09837
H         -0.98646       -0.90673       -0.94831
C         -4.28768       -0.12298       -0.14974
H         -4.81891        0.61537        0.45156
H         -4.65614       -0.12139       -1.17531
H         -4.36287       -1.11471        0.29479
S          1.06575       -2.06294        0.16684
O          0.45818       -3.36968       -0.04386
O          0.47574       -0.98440       -0.74147
O          2.55112       -2.00717        0.04345
H          3.04941       -0.79951       -1.03559
C          0.68315       -1.52598        1.82177
H         -0.40096       -1.44683        1.91197
H          1.08547       -2.27063        2.50933
H          1.14134       -0.54860        1.98156
N          2.85354        0.05336       -1.61817
H          3.38517        0.06892       -2.48225
H          3.00753        0.92205       -1.00619
H          1.84330       -0.05601       -1.78624
H          2.06273        4.04887        0.52087
H          2.06804        3.51644       -1.16629
H         -0.17973        3.22753       -0.18504
H          0.50304        1.66277       -0.59842
H          0.33935        2.76063        2.09525
H         -0.27783        1.36855        1.51419
H          3.93129        2.63464        0.27960
H          2.78105        1.73206        1.03022
C          1.97503        3.16833       -0.13183
C          0.61237        2.51566        0.07914
N          3.03246        2.18165        0.14712
N          0.51801        2.00092        1.44486
