37
2msa1ma1eda_456.log	Energy: -1013352.8632487
S          1.66054        1.33625       -0.59735
O          0.96730        2.48942       -1.17670
O          1.89921        0.17981       -1.45154
O          0.86526        0.89885        0.69285
H          0.36440       -0.04773        0.62209
C          3.19661        1.87556        0.10590
H          3.83373        2.18676       -0.72283
H          2.99036        2.71401        0.77129
H          3.61996        1.02785        0.65524
S         -1.13601       -1.73596       -0.50143
O         -2.21526       -2.63474       -0.11176
O         -0.41859       -1.17278        0.71670
O         -1.54147       -0.61773       -1.40247
H         -1.57628        0.90982       -0.85534
C          0.10225       -2.65017       -1.39266
H          0.48360       -3.43013       -0.73310
H         -0.37555       -3.08570       -2.27052
H          0.88726       -1.94895       -1.67968
N          3.19788       -0.91466        1.94434
H          3.59166       -1.23969        2.82068
C          3.04152       -2.02853        1.00630
H          2.35271       -2.81373        1.34873
H          2.67059       -1.64012        0.05457
H          4.01947       -2.48129        0.82036
H          2.29035       -0.51228        2.15863
H         -3.22287        2.98190        0.51383
H         -3.73664        1.96113       -0.85813
H         -4.44723        1.07855        1.45053
H         -3.53293       -0.06937        0.47604
H         -2.79395        0.92371        2.98922
H         -1.90840       -0.06920        2.01011
H         -1.28505        2.57173       -0.91350
H         -1.13958        1.75272        0.51472
C         -3.11789        2.00262        0.04049
C         -3.46038        0.87542        1.02454
N         -1.69925        1.82998       -0.34778
N         -2.42753        0.80372        2.05536
