43
2msa1eda1tma_32.log	Energy: -1062691.9763848
S         -2.65666       -0.60948       -0.04146
O         -2.96234        0.22515        1.13369
O         -2.41341       -2.03619        0.22451
O         -1.52684       -0.01004       -0.85376
C         -4.08521       -0.52606       -1.11378
H         -4.92888       -0.96374       -0.57953
H         -4.28464        0.52024       -1.34824
H         -3.87351       -1.08974       -2.02255
S          2.83118        0.41600       -0.30670
O          1.49920        0.46554        0.36634
O          3.19321        1.68343       -0.95348
O          2.91619       -0.78195       -1.19966
C          4.02929        0.12260        0.98667
H          3.75302       -0.79023        1.51604
H          5.01000        0.01852        0.52180
H          4.01608        0.97622        1.66502
H         -0.59976       -3.48554       -0.34373
H          1.00877       -3.95620       -0.97363
H          1.02582       -3.94860        1.46749
H          2.12087       -2.72323        0.84436
H          0.65718       -1.03789        1.46042
H         -0.57457       -2.08288        1.81258
H          0.18756       -2.12000       -2.19284
H         -0.16121       -1.21520       -0.87161
C          0.44840       -3.19216       -0.42678
C          1.06103       -2.97648        0.96127
N          0.48734       -1.94228       -1.23681
N          0.43493       -1.97231        1.79585
H          1.45651       -1.51925       -1.26252
N         -0.81179        2.45700        0.16147
C         -2.15840        3.03742       -0.07031
H         -2.37210        3.00298       -1.13937
H         -2.88630        2.43752        0.47645
H         -2.16188        4.07244        0.27852
C         -0.50735        2.37184        1.61521
H         -1.26949        1.74335        2.07765
H          0.47486        1.91424        1.72195
H         -0.52423        3.38008        2.03603
C          0.23439        3.19678       -0.59078
H          1.19978        2.71242       -0.44756
H         -0.02225        3.18002       -1.65079
H          0.25731        4.22774       -0.22970
H         -0.85565        1.47418       -0.19919
