35
2msa1ma1dma_121.log	Energy: -978625.9229383
S         -1.90269       -1.20398       -0.09082
O         -1.56798       -1.58963       -1.46619
O         -2.47616        0.16392        0.03361
O         -0.74229       -1.37288        0.85884
C         -3.14924       -2.32192        0.51687
H         -4.03547       -2.20838       -0.10768
H         -2.75278       -3.33476        0.44462
H         -3.36771       -2.06390        1.55294
S          2.44912       -0.42597        0.08828
O          2.68210        0.11799        1.41809
O          1.87079        0.48913       -0.90746
O          1.62595       -1.75454        0.14164
H          0.62938       -1.60909        0.40077
C          3.97264       -1.06217       -0.56483
H          4.35886       -1.79989        0.13810
H          3.77427       -1.50983       -1.53793
H          4.65721       -0.21823       -0.65332
N         -0.08284        1.52869        1.78574
H         -0.28913        0.53649        1.68427
C         -1.08214        2.14183        2.65717
H         -1.13051        1.71167        3.66804
H         -0.88211        3.21421        2.76064
H         -2.06846        2.02562        2.19738
H          0.84739        1.57962        2.18938
N         -0.59578        1.80351       -1.14765
C         -0.64124        3.25761       -0.90413
C         -0.70852        1.40630       -2.56884
H          0.28692        1.42276       -0.76585
H         -1.60637        3.64699       -1.23203
H         -0.50268        3.41245        0.16509
H          0.16283        3.73993       -1.46270
H         -1.63210        1.81729       -2.97965
H          0.15408        1.79151       -3.11398
H         -0.73801        0.31694       -2.61625
H         -1.34644        1.32060       -0.60341
