37
2msa1ma1eda_557.log	Energy: -1013344.8271553
S          2.74020       -1.11153       -0.11274
O          3.37229       -0.06140        0.67832
O          2.55243       -0.87164       -1.53769
O          1.37308       -1.55054        0.54889
H          0.66442       -0.82030        0.44183
C          3.64659       -2.62347        0.11555
H          4.63356       -2.46311       -0.31950
H          3.72418       -2.82323        1.18376
H          3.12197       -3.42509       -0.40327
S         -1.03315        0.88392       -0.81014
O         -0.39904        0.25601        0.40330
O         -2.00633        1.91856       -0.42352
O         -1.67040       -0.17429       -1.66938
H         -3.15065       -0.26123       -1.12427
C          0.27517        1.60847       -1.75587
H          0.81765        2.30331       -1.10218
H          0.94045        0.80489       -2.07892
H         -0.17871        2.11458       -2.60835
N          2.20131        2.88075        0.60220
H          2.69715        1.99195        0.60817
C          1.32614        2.97728        1.76914
H          1.84587        2.90202        2.73668
H          0.78672        3.92914        1.74349
H          0.58273        2.17767        1.71811
H          2.90153        3.61414        0.61569
H         -5.10224       -1.63484        0.69759
H         -4.12880       -2.39222       -0.59327
H         -3.11151       -2.63145        1.74461
H         -2.04605       -1.84827        0.57387
H         -3.10452       -0.66580        2.92686
H         -1.98913       -0.06476        1.85438
H         -4.85020       -0.02461       -1.04222
H         -3.84747        0.41511        0.22941
C         -4.14726       -1.60838        0.16641
C         -2.97111       -1.72619        1.14522
N         -4.02855       -0.28991       -0.50588
N         -2.89750       -0.51313        1.94965
