42
2msa2eda_443.log	Energy: -1072751.1484224
S          3.66418        0.05549       -0.31009
O          3.92890        1.15480       -1.24364
O          2.40626       -0.70654       -0.62175
O          3.68140        0.45815        1.12909
H          1.94540        0.38315        1.83124
C          4.98712       -1.13116       -0.50222
H          4.97611       -1.48589       -1.53324
H          5.92732       -0.62452       -0.28241
H          4.82172       -1.95441        0.19302
S         -1.36221       -1.76805        0.20954
O         -1.01177       -1.71875        1.64641
O         -1.20537       -0.46048       -0.47377
O         -2.74093       -2.31486       -0.03611
H         -3.51904       -1.18498       -0.78294
C         -0.22171       -2.89871       -0.56147
H          0.78032       -2.46819       -0.48552
H         -0.28663       -3.85590       -0.04371
H         -0.50189       -3.00487       -1.60965
H         -5.60909        0.91937       -0.56631
H         -5.10740       -0.30881        0.62467
H         -4.28054        2.01038        1.22474
H         -2.96294        0.85746        0.96628
H         -3.73497        3.00102       -0.84313
H         -2.22566        2.50274       -0.42046
H         -4.66046       -0.65711       -1.93813
H         -3.34134        0.32053       -1.57535
C         -4.75337        0.40394       -0.12206
C         -3.76097        1.41194        0.46577
N         -4.04249       -0.34194       -1.19544
N         -3.17758        2.18304       -0.62314
H         -0.81632        1.27252        1.27412
H          0.44976        2.15390        2.16247
H          1.69021        2.46658       -0.01176
H          0.46480        1.48642       -0.82339
H         -0.06373        4.08735        0.43484
H         -0.10157        3.73315       -1.14853
H          0.43387       -0.45147        1.96576
H          1.21425       -0.17400        0.52503
C          0.24419        1.51950        1.29513
C          0.62516        2.20124       -0.01204
N          0.98956        0.24901        1.45796
N         -0.27150        3.34383       -0.22641
