37
2msa1ma1eda_241.log	Energy: -1013360.5568536
S          2.78489       -0.25581       -0.36149
O          2.86916        0.83716       -1.31121
O          2.37027       -1.57658       -0.85294
O          1.85693        0.11424        0.85061
C          4.35529       -0.46590        0.44562
H          4.25210       -1.22784        1.21773
H          5.06666       -0.78397       -0.31714
H          4.64916        0.49220        0.87358
S         -1.05040        1.92873        0.15262
O         -2.04375        1.45524        1.13241
O         -1.05038        1.14213       -1.11009
O          0.33060        2.03910        0.73624
H          1.24046        0.96577        0.72179
C         -1.47500        3.59903       -0.29062
H         -2.47418        3.58608       -0.72624
H         -1.45591        4.20301        0.61646
H         -0.74020        3.95407       -1.01284
N         -0.81682       -1.14013        2.05978
H          0.10363       -0.94744        2.44487
C         -1.55651       -2.08077        2.90267
H         -1.70862       -1.72463        3.92901
H         -2.53991       -2.26175        2.45950
H         -1.02705       -3.03674        2.94448
H         -1.30347       -0.24170        2.00581
H         -1.29383       -2.69215       -2.25439
H         -1.31784       -3.47084       -0.65135
H         -3.57191       -2.84781       -1.19713
H         -3.02512       -1.76175        0.08542
H         -4.18685       -0.74041       -1.91816
H         -2.72474       -0.06419       -1.62165
H          0.49902       -1.81323       -0.88839
H         -0.63258       -0.60306       -1.04835
C         -1.47361       -2.53180       -1.18937
C         -2.89298       -2.01725       -0.97958
N         -0.47717       -1.56059       -0.67798
N         -3.19155       -0.92704       -1.89585
H         -0.56773       -1.46608        0.38478
