28
2msa1dma_43.log	Energy: -918455.2489156
S          1.88409       -1.18182       -0.05146
O          2.83874       -1.97499       -0.81992
O          0.91451       -0.38970       -0.85698
O          2.53736       -0.27476        0.96949
H          2.26011        1.14296        0.67280
C          0.90889       -2.31598        0.92725
H          0.42804       -3.01765        0.24388
H          1.57984       -2.84869        1.60152
H          0.16387       -1.74395        1.48066
S         -2.76286        0.10409       -0.10019
O         -2.25643        1.43633       -0.35854
O         -4.18660       -0.12445        0.08587
O         -2.03340       -0.42130        1.26493
H         -2.72678       -0.76553        1.84605
C         -2.09766       -1.01876       -1.29825
H         -2.42140       -2.02714       -1.04038
H         -2.51018       -0.71864       -2.26287
H         -1.00635       -0.91510       -1.28474
N          2.03647        2.18907        0.43095
C          0.61471        2.44925        0.75854
C          2.36421        2.41413       -0.99660
H          2.63977        2.76204        1.01848
H         -0.00328        1.79604        0.14379
H          0.44851        2.21799        1.81081
H          0.37130        3.49450        0.55808
H          1.76243        1.71784       -1.58158
H          2.14387        3.44847       -1.26846
H          3.42112        2.19623       -1.15271
