40
2msa1dma1eda_462.log	Energy: -1038012.4701333
S         -1.67950        0.50242        1.06023
O         -1.39777        1.91955        1.32284
O         -1.32432        0.04393       -0.30866
O         -3.12191        0.13597        1.34973
H         -3.76754       -0.40383        0.16593
C         -0.71494       -0.45783        2.20661
H          0.34268       -0.32929        1.95781
H         -0.93692       -0.10247        3.21314
H         -1.00080       -1.50473        2.09809
S          2.60613       -1.57843       -0.05647
O          3.53761       -2.57917        0.46220
O          2.96006       -0.96856       -1.35691
O          2.29754       -0.48578        0.95512
H          2.72574        0.86409        0.45273
C          1.03096       -2.39672       -0.28967
H          1.16141       -3.14662       -1.07131
H          0.75949       -2.87842        0.65109
H          0.28843       -1.64769       -0.57160
N         -4.21093       -0.81630       -0.76008
C         -3.51971       -2.08854       -1.07312
C         -4.07903        0.20572       -1.82508
H         -5.19569       -0.99286       -0.56853
H         -2.45787       -1.86292       -1.17831
H         -3.66475       -2.78111       -0.24342
H         -3.92074       -2.51638       -1.99424
H         -3.01484        0.41302       -1.94373
H         -4.51300       -0.16671       -2.75535
H         -4.59045        1.11331       -1.50335
H          3.06078        2.96999       -1.68231
H          2.77834        1.20373       -1.88121
H          0.65660        2.62011       -2.16519
H          0.54400        1.39776       -0.90285
H          0.66501        4.25913       -0.51175
H         -0.03820        3.07539        0.40593
H          4.04220        1.91147        0.17698
H          2.56791        2.56617        0.67653
C          2.54547        2.08875       -1.28759
C          1.04059        2.33313       -1.17880
N          3.03105        1.84922        0.09656
N          0.78736        3.32716       -0.13561
