43
2msa1eda1tma_101.log	Energy: -1062681.9645089
S         -2.02191        1.96301        0.51423
O         -2.42710        3.34924        0.60048
O         -0.62392        1.64301        0.84727
O         -2.33616        1.47022       -0.94485
C         -3.06158        0.95092        1.54096
H         -2.89587        1.26921        2.57108
H         -4.09600        1.12713        1.24574
H         -2.76736       -0.09357        1.40228
S         -1.34200       -2.07565       -0.60759
O         -1.54513       -1.83530        0.83766
O          0.08120       -2.34733       -0.94442
O         -1.92464       -0.99023       -1.45356
H         -2.11853        0.48501       -1.10276
C         -2.24863       -3.54335       -1.05357
H         -3.30267       -3.36962       -0.83692
H         -2.09822       -3.72379       -2.11784
H         -1.86255       -4.37311       -0.46137
H          1.93093       -0.28466        2.63870
H          0.76172       -1.58418        2.31433
H          2.97778       -2.58036        2.63143
H          2.46021       -2.78239        0.95442
H          4.45362       -0.85188        1.89270
H          4.59760       -1.97809        0.71663
H          0.45125        0.21909        0.79997
H          2.00756        0.16473        0.20415
C          1.64244       -1.06530        1.92846
C          2.78482       -2.04180        1.69243
N          1.25332       -0.41634        0.66244
N          3.94895       -1.33811        1.15896
H          0.94257       -1.13986       -0.01917
N          2.60931        1.42146       -0.93289
C          1.58098        1.39470       -1.97220
H          1.54133        0.40187       -2.42983
H          0.60542        1.60774       -1.52758
H          1.77441        2.13996       -2.76158
C          2.60628        2.70036       -0.22962
H          1.62155        2.86927        0.21497
H          3.35530        2.68094        0.56782
H          2.83877        3.54226       -0.90392
C          3.92327        1.10811       -1.47624
H          4.65589        1.07048       -0.66610
H          3.89647        0.12470       -1.95303
H          4.25090        1.85342       -2.22183
