34
2msa1a1eda_92.log	Energy: -988705.3690727
S         -1.47717        1.33636        0.44450
O         -0.71644        0.63760        1.50640
O         -2.63603        0.55699       -0.04751
O         -0.59265        1.75940       -0.68979
C         -2.12087        2.84018        1.15095
H         -1.28168        3.42979        1.52043
H         -2.65683        3.37907        0.36958
H         -2.79357        2.56884        1.96468
S          2.55837        0.26488       -0.24042
O          3.93774        0.22054       -0.67324
O          1.66119       -0.81826       -0.67226
O          1.95603        1.64725       -0.68882
H          0.93691        1.66587       -0.66074
C          2.48935        0.33865        1.53459
H          2.90044       -0.59853        1.91273
H          3.10087        1.18132        1.85761
H          1.44294        0.46351        1.82328
N         -2.07933       -0.23087       -3.00200
H         -1.34985        0.40305       -3.31569
H         -2.59968        0.26992       -2.28062
H         -2.69837       -0.40652       -3.78582
H         -1.66910       -3.60579       -0.60540
H          0.03379       -3.46015       -1.13349
H         -0.19778       -4.14340        1.28226
H          0.70193       -2.63779        1.06722
H         -1.37722       -2.87049        2.73416
H         -1.09962       -1.44724        1.95704
H         -1.33183       -1.46857       -1.82637
H         -1.68881       -1.21344       -0.24777
C         -0.73528       -3.05581       -0.47178
C         -0.29502       -3.09370        0.99089
N         -0.97952       -1.64853       -0.85723
N         -1.29549       -2.43800        1.82410
H         -0.09926       -1.11172       -0.75854
