40
2msa1dma1eda_558.log	Energy: -1038005.2041133
S          2.43474       -0.87692       -0.66306
O          3.85152       -1.10343       -0.86646
O          1.94044       -0.67820        0.70538
O          1.65692       -2.11587       -1.28136
H          0.74710       -2.24586       -0.83249
C          1.89411        0.48657       -1.65730
H          2.31683        1.39691       -1.21565
H          2.25666        0.32032       -2.67181
H          0.80230        0.53002       -1.62649
S         -2.54143        0.67265       -0.61852
O         -1.41179        0.77849       -1.54398
O         -2.37280        1.38857        0.67375
O         -2.93253       -0.76934       -0.34802
H         -2.59039       -1.04305        1.19410
C         -3.95969        1.39170       -1.42422
H         -3.73461        2.44148       -1.61424
H         -4.12315        0.85916       -2.36113
H         -4.82207        1.29553       -0.76481
N          2.15869        3.01285        0.41384
C          3.04050        2.61887        1.50264
C          0.76017        2.71656        0.68795
H          2.27087        4.00092        0.21619
H          2.98705        1.53262        1.62658
H          4.07372        2.87964        1.25750
H          2.78082        3.08712        2.46927
H          0.64314        1.63426        0.79546
H          0.37805        3.19166        1.60829
H          0.13251        3.02535       -0.15096
H         -1.17187       -3.37563        1.87953
H          0.53533       -3.00546        1.59994
H         -0.16626       -1.22360        2.94522
H         -0.16837       -0.54859        1.31627
H         -2.53984       -1.37558        2.88769
H         -2.16027        0.12690        2.20972
H         -0.80698       -3.63094       -0.41763
H         -1.44872       -2.11793       -0.39126
C         -0.48378       -2.67923        1.37528
C         -0.64128       -1.28645        1.96530
N         -0.65264       -2.68403       -0.08449
N         -2.07736       -0.89693        2.11828
