35
2msa1ma1dma_235.log	Energy: -978617.9565299
S         -1.92927        1.24474        0.11305
O         -1.00606        1.51342        1.23670
O         -2.95167        0.21905        0.40903
O         -1.19147        0.94220       -1.16300
C         -2.80193        2.77070       -0.20763
H         -3.34487        3.04275        0.69793
H         -2.07174        3.53922       -0.46242
H         -3.49197        2.60499       -1.03514
S          2.60135        0.42269       -0.20128
O          1.77657       -0.62803        0.36479
O          3.28574        0.19445       -1.46613
O          3.75204        0.75980        0.90008
H          4.60622        0.74882        0.44549
C          1.69466        1.93744       -0.24648
H          0.86908        1.78016       -0.94729
H          1.26986        2.11450        0.74218
H          2.37224        2.72748       -0.56926
N         -0.76537       -1.57728        1.71455
H         -0.42474       -0.61486        1.73603
C          0.06891       -2.44348        2.54881
H          0.10669       -2.13273        3.60043
H         -0.30927       -3.46933        2.50790
H          1.08628       -2.43559        2.15132
H         -1.72041       -1.52270        2.05852
N         -0.93564       -1.80407       -1.01852
C         -2.27806       -2.32877       -1.33700
C          0.16787       -2.50475       -1.69834
H         -0.92460       -0.78050       -1.23169
H         -2.34333       -3.37044       -1.01455
H         -3.00647       -1.71488       -0.80542
H         -2.44959       -2.26579       -2.41364
H          0.13288       -3.56533       -1.43950
H          0.06379       -2.39108       -2.77942
H          1.11202       -2.07645       -1.36522
H         -0.80830       -1.82163        0.05541
