37
2msa1ma1eda_569.log	Energy: -1013346.9086858
S          1.08096       -1.60921       -0.45219
O          0.47834       -1.36498        0.89716
O          2.45192       -2.13493       -0.36885
O          1.02608       -0.35365       -1.28338
H          2.39784        0.42801       -0.88570
C          0.03721       -2.79267       -1.26418
H          0.06667       -3.71123       -0.67746
H         -0.97246       -2.37794       -1.28847
H          0.43362       -2.95912       -2.26589
S         -2.80028       -0.07597        0.55370
O         -3.61052       -0.55496        1.65999
O         -2.57700       -0.96447       -0.58448
O         -1.38198        0.42139        1.09300
H         -0.69879       -0.31763        1.01099
C         -3.44385        1.47190       -0.02607
H         -4.45142        1.26872       -0.39170
H         -3.47743        2.16344        0.81618
H         -2.78707        1.82157       -0.83046
N         -0.97271        1.79556       -2.16206
H         -0.68852        0.83891       -1.96135
C          0.01025        2.71168       -1.60596
H          1.03880        2.55694       -1.97618
H         -0.27209        3.74614       -1.82565
H          0.01823        2.59543       -0.51728
H         -1.02632        1.89007       -3.17013
H          3.97001        2.30615        0.85336
H          2.56620        2.73550       -0.16292
H          1.97043        2.33011        2.29656
H          1.09223        1.29811        1.17040
H          2.95169        0.43792        3.14327
H          1.96188       -0.46845        2.16709
H          4.02679        0.89781       -1.06812
H          3.52589       -0.01257        0.24943
C          3.01390        1.95602        0.45592
C          2.08278        1.50374        1.58758
N          3.28047        0.76412       -0.39069
N          2.63028        0.29799        2.19540
