40
2msa1dma1eda_475.log	Energy: -1038010.2343296
S          1.01268        1.93993       -0.21355
O          0.30508        2.17537       -1.48245
O          2.37860        1.37459       -0.37030
O          0.19603        1.12057        0.74421
C          1.22638        3.52638        0.57865
H          1.83971        4.14646       -0.07557
H          0.24283        3.97504        0.72014
H          1.72118        3.37125        1.53757
S         -3.44245       -0.46760        0.21877
O         -4.72641       -0.75734       -0.39735
O         -2.41717       -1.49509        0.28204
O         -3.74154       -0.02166        1.75283
H         -4.70142       -0.01640        1.87698
C         -2.73852        1.01340       -0.44677
H         -2.46454        0.80561       -1.48233
H         -3.49037        1.80070       -0.39906
H         -1.83887        1.25519        0.12664
N          2.93405       -1.13601        1.14047
C          4.06689       -1.99139        0.80724
C          2.80041       -0.86023        2.56703
H          3.00749       -0.24482        0.64473
H          3.93515       -2.97234        1.27713
H          4.09629       -2.12509       -0.27683
H          5.02633       -1.57605        1.15097
H          2.57953       -1.78916        3.10460
H          3.71197       -0.42445        3.00276
H          1.97249       -0.16169        2.71717
H          0.76569       -3.09045       -1.28844
H         -0.78820       -2.22851       -1.44885
H          0.69989       -1.65971       -3.28731
H          0.39847       -0.22472       -2.30753
H          2.82551       -1.04242       -3.02358
H          2.55549       -0.18352       -1.66129
H         -0.15269       -2.08151        0.75645
H          1.46261       -1.56424        0.46390
C          0.28254       -2.11026       -1.26778
C          0.90813       -1.19892       -2.31617
N          0.44092       -1.56856        0.10692
N          2.35200       -1.06700       -2.12888
H          0.15133       -0.57093        0.19364
