32
2msa1a1dma_146.log	Energy: -953954.9923504
S          1.14458       -1.68778       -0.07487
O          2.38474       -2.14712       -0.70368
O          0.56319       -0.46289       -0.71444
O          1.25428       -1.48496        1.40632
H          0.91287        0.05898        1.80696
C         -0.08120       -2.97020       -0.28499
H         -0.20358       -3.14907       -1.35412
H          0.28702       -3.86969        0.20920
H         -1.01424       -2.63085        0.16700
S         -2.65137        0.46634        0.01528
O         -2.72338       -0.83661        0.65366
O         -1.88155        1.53371        0.63969
O         -4.17666        1.01137       -0.12366
H         -4.74678        0.43640        0.40736
C         -2.19954        0.32750       -1.68857
H         -2.86183       -0.40245       -2.15338
H         -2.30581        1.31055       -2.14730
H         -1.15661       -0.01118       -1.68155
N          0.75691        1.10720        1.82354
H         -0.19134        1.29098        1.47461
H          1.46783        1.50665        1.11870
H          0.87484        1.48960        2.75607
N          2.49672        1.71447       -0.21246
C          3.79890        1.09240        0.03085
C          2.59685        3.02548       -0.84164
H          1.94370        1.08058       -0.79421
H          4.34907        1.67405        0.77859
H          3.65128        0.07651        0.40488
H          4.41035        1.03360       -0.88075
H          3.12615        3.71353       -0.17406
H          3.13977        2.99702       -1.79825
H          1.59565        3.42707       -1.02109
