37
2msa1ma1eda_237.log	Energy: -1013358.6376222
S          1.71688        1.84759        0.18318
O          1.66916        1.50971       -1.24717
O          2.08457        0.68903        1.04034
O          0.46172        2.51772        0.67229
C          2.97933        3.07988        0.43058
H          2.71874        3.95470       -0.16519
H          3.01247        3.32792        1.49132
H          3.92857        2.65661        0.10148
S         -2.39743        0.69906       -0.13748
O         -2.46863        0.09457        1.19172
O         -1.70826       -0.10238       -1.16080
O         -1.83809        2.14274       -0.09175
H         -0.81851        2.24414        0.21699
C         -4.04259        1.02959       -0.71798
H         -4.54251        1.66473        0.01263
H         -3.97168        1.52218       -1.68710
H         -4.54776        0.06744       -0.80638
N         -1.17090       -2.71320        1.22302
H         -0.93398       -3.31895        2.00065
C         -2.12067       -3.35858        0.31542
H         -3.07002       -3.63982        0.78977
H         -2.33873       -2.66982       -0.50566
H         -1.66747       -4.25926       -0.10903
H         -1.58142       -1.85869        1.59754
H          1.23686       -2.52905       -1.95068
H          2.09354       -0.97169       -1.83902
H          3.65528       -2.76801       -1.25742
H          3.31170       -1.77826        0.16572
H          2.23620       -4.45632       -0.33891
H          3.02940       -3.90216        0.98041
H         -0.02665       -0.81403       -0.78632
H          0.24812       -2.06693        0.26761
C          1.73320       -1.83137       -1.26938
C          2.87642       -2.50612       -0.52676
N          0.72880       -1.32941       -0.30990
N          2.38076       -3.64147        0.24766
H          1.18816       -0.65397        0.33651
