43
2msa1eda1tma_68.log	Energy: -1062683.7705062
S         -2.06066       -0.82112       -1.01829
O         -2.71007       -0.15225        0.12057
O         -1.55424       -2.18431       -0.71402
O         -0.96191        0.01292       -1.61905
C         -3.28260       -1.01653       -2.30074
H         -4.07887       -1.65019       -1.90969
H         -3.66690       -0.02874       -2.55605
H         -2.80495       -1.48259       -3.16233
S         -0.11914        2.59475        0.55051
O          0.58526        3.84938        0.70588
O          0.52808        1.37646        1.06642
O         -0.42542        2.40069       -0.97991
H         -0.69145        1.43726       -1.21356
C         -1.72942        2.70519        1.29125
H         -1.58123        2.83408        2.36410
H         -2.23103        3.57377        0.86451
H         -2.26568        1.77918        1.06747
H          1.51655       -2.77405        1.96029
H          1.61765       -1.07085        2.49285
H         -0.13226       -2.15906        3.75306
H         -0.89027       -1.01816        2.63484
H         -1.80374       -3.40524        2.80539
H         -1.53495       -2.88050        1.27909
H          1.72489       -1.26063        0.05980
H          0.12994       -1.91565        0.06519
C          0.99536       -1.81463        1.98866
C         -0.34489       -1.97369        2.69563
N          0.80964       -1.34435        0.59443
N         -1.07970       -3.11252        2.16054
H          0.43919       -0.38051        0.61493
N          3.11919       -0.66921       -0.79833
C          4.04634       -1.68972       -1.27396
H          4.44811       -2.24968       -0.42469
H          3.52065       -2.38652       -1.93246
H          4.89018       -1.25090       -1.83219
C          2.51203        0.05813       -1.91465
H          1.95544       -0.63505       -2.55035
H          1.80816        0.80051       -1.53197
H          3.27115        0.57456       -2.52386
C          3.76901        0.25601        0.12982
H          3.03061        0.96609        0.51280
H          4.18976       -0.30237        0.97164
H          4.58315        0.81818       -0.35598
