40
2msa1dma1eda_18.log	Energy: -1038037.0990642
S          2.53583       -1.00504       -0.12453
O          2.87602        0.05196       -1.10057
O          1.89529       -2.20459       -0.72826
O          1.71606       -0.46471        1.00640
C          4.06744       -1.57456        0.58822
H          4.68042       -1.98077       -0.21655
H          4.56186       -0.72421        1.05819
H          3.83842       -2.34372        1.32571
S         -2.95100        0.54591        0.09878
O         -2.51775        1.67185        0.94007
O         -3.42613       -0.65883        0.79868
O         -1.85799        0.18305       -0.89585
C         -4.30539        1.12779       -0.90897
H         -3.97028        1.99894       -1.47213
H         -4.60849        0.32484       -1.58083
H         -5.12218        1.39729       -0.23873
N         -0.79746       -2.25039       -0.09422
C         -0.84568       -2.40529        1.37972
C         -1.63821       -3.21923       -0.82580
H         -1.13946       -1.29669       -0.35151
H         -0.55008       -3.42499        1.63367
H         -0.13794       -1.69618        1.80942
H         -1.86023       -2.18994        1.71537
H         -1.31408       -4.23384       -0.58891
H         -2.67602       -3.06913       -0.52491
H         -1.53205       -3.03761       -1.89536
H          0.19794       -2.30587       -0.40492
H          0.08628        3.65121       -0.46393
H         -0.18760        2.92112        1.13619
H          1.95297        4.29028        0.98901
H          2.24471        2.60860        1.44254
H          3.53319        3.78894       -0.55706
H          3.12994        2.19973       -0.68318
H         -0.53006        1.26467       -0.60967
H          1.03004        1.55752       -1.17648
C          0.47193        2.93752        0.26680
C          1.92020        3.26168        0.61912
N          0.42524        1.59161       -0.34985
N          2.75708        3.14081       -0.57170
H          0.81563        0.87431        0.29819
