37
2msa1ma1eda_215.log	Energy: -1013362.6948035
S          0.47188        2.02838        0.11870
O         -0.09978        1.22634        1.25601
O         -0.54204        2.40102       -0.87472
O          1.67110        1.35534       -0.45451
C          1.07200        3.53214        0.86657
H          0.22267        4.04282        1.32050
H          1.81472        3.27342        1.62119
H          1.51424        4.14313        0.07946
S         -2.66319       -0.67781       -0.34378
O         -3.74118       -1.62166       -0.13296
O         -1.40747       -1.16526       -0.92204
O         -2.35911       -0.00519        1.05434
H         -1.48250        0.50362        1.06918
C         -3.23009        0.67835       -1.34123
H         -3.45708        0.27409       -2.32848
H         -4.12757        1.08389       -0.87420
H         -2.42801        1.41900       -1.38720
N          1.00955       -1.53217        1.69158
H          1.93512       -1.64543        2.09448
C          0.03611       -2.45900        2.27639
H         -0.09088       -2.32805        3.35739
H         -0.93251       -2.30594        1.79701
H          0.35034       -3.48856        2.08552
H          0.72237       -0.56208        1.83454
H          2.69992       -2.92705       -0.97530
H          2.51153       -2.12621       -2.55282
H          4.67603       -1.59638       -1.42785
H          3.71340       -0.16195       -1.80258
H          4.74759       -0.45705        0.53712
H          3.21571        0.10099        0.42490
H          0.47301       -1.72497       -1.42777
H          1.19100       -1.50704        0.08657
C          2.58206       -1.96154       -1.47430
C          3.76614       -1.05199       -1.15797
N          1.31950       -1.35983       -0.99116
N          3.80647       -0.71386        0.26343
H          1.31368       -0.33071       -1.10310
