38
2msa2dma_67.log	Energy: -1003285.8632814
S          1.64443        1.54767       -0.19081
O          1.55291        1.01288       -1.55401
O          2.34662        0.66111        0.77689
O          0.30167        1.95394        0.36455
C          2.59720        3.05162       -0.25533
H          2.65292        3.46964        0.74954
H          3.59087        2.80126       -0.62747
H          2.09437        3.73945       -0.93535
S         -2.56612        0.25808       -0.17631
O         -3.16329        0.52331        1.12455
O         -1.64542       -0.88756       -0.24796
O         -1.88342        1.53193       -0.77185
H         -0.95048        1.71556       -0.34726
C         -3.84397        0.02016       -1.38534
H         -4.41078       -0.85975       -1.07987
H         -4.47859        0.90613       -1.38847
H         -3.37495       -0.13337       -2.35654
N          0.42391       -1.07430        1.69767
C          0.78305       -2.43757        2.13162
C         -0.25257       -0.25335        2.72724
H          1.26872       -0.55911        1.36078
H         -0.11522       -2.95080        2.47884
H          1.20459       -2.95230        1.26906
H          1.51250       -2.37712        2.94071
H         -1.22850       -0.68621        2.94854
H          0.36965       -0.22509        3.62319
H         -0.37669        0.75232        2.32577
H         -0.18190       -1.13688        0.86067
N          1.23613       -2.01109       -1.02803
C          0.46376       -3.01945       -1.73438
C          2.67150       -2.23988       -1.10140
H          1.04211       -1.08970       -1.41527
H          0.60087       -3.99483       -1.25000
H         -0.59720       -2.76239       -1.68547
H          0.75375       -3.13377       -2.79328
H          2.92730       -3.16622       -0.56982
H          3.04658       -2.33739       -2.13422
H          3.19055       -1.40774       -0.61953
