37
2msa1ma1eda_22.log	Energy: -1013375.8996547
S         -2.67356       -0.75415       -0.09730
O         -2.15175       -1.80154       -1.02026
O         -3.00511        0.52239       -0.74548
O         -1.74460       -0.57723        1.06967
C         -4.18853       -1.41082        0.57922
H         -4.88603       -1.56173       -0.24501
H         -3.96877       -2.35618        1.07530
H         -4.58533       -0.68514        1.28952
S          2.92928       -0.01797       -0.12112
O          2.89690        1.32624       -0.71125
O          2.74390       -1.13612       -1.08556
O          1.96260       -0.15340        1.02743
C          4.55014       -0.24489        0.59038
H          5.28178       -0.17214       -0.21466
H          4.71132        0.54190        1.32752
H          4.59173       -1.22791        1.05944
N          0.40941       -2.26701       -0.18504
H          0.42556       -1.61053        0.60403
H         -0.51158       -2.12402       -0.66060
C          0.56901       -3.65833        0.27644
H          0.54735       -4.32537       -0.58494
H          1.52349       -3.75736        0.79334
H         -0.24958       -3.90651        0.95177
H          1.21225       -1.95920       -0.77311
H          0.78821        2.53227       -0.80317
H         -0.46597        1.34554       -1.21323
H         -1.29849        3.68533       -1.57481
H         -2.24256        2.78553       -0.38333
H         -0.27164        4.88022        0.21556
H         -1.81666        4.75295        0.73744
H          0.76903        1.09919        0.99822
H         -0.20387        2.42271        1.48305
C         -0.20442        2.16178       -0.53851
C         -1.26980        3.24913       -0.56865
N         -0.12066        1.62358        0.84536
N         -0.99064        4.22032        0.49374
H         -0.88233        0.93207        1.02424
