34
2msa1a1eda_71.log	Energy: -988704.4157666
S         -2.46215       -0.67130       -0.17628
O         -2.18427        0.80890        0.24877
O         -3.01486       -1.35614        0.98282
O         -1.28495       -1.24586       -0.82615
C         -3.73714       -0.50364       -1.40635
H         -4.59032       -0.00511       -0.94685
H         -3.33778        0.08159       -2.23485
H         -4.00707       -1.50719       -1.73683
S          0.98940        2.11912       -0.15207
O          1.94597        1.07707       -0.61474
O          0.83145        2.15735        1.31168
O         -0.32569        2.02195       -0.87192
H         -1.39481        1.28217       -0.24814
C          1.66830        3.68078       -0.67502
H          1.77663        3.66009       -1.75930
H          0.97776        4.46604       -0.36772
H          2.63673        3.80547       -0.19032
N         -0.30742       -0.36601        2.61662
H         -1.29801       -0.57635        2.51157
H         -0.16839        0.62104        2.38933
H         -0.06184       -0.49963        3.59179
H          3.07256       -1.34723        1.44082
H          2.23470       -2.91297        1.43241
H          3.43361       -1.50853       -1.00679
H          4.18061       -2.87274       -0.16802
H          2.57363       -3.20933       -2.24106
H          2.43728       -4.25614       -0.98564
H          1.42916       -0.45555       -0.01392
H          0.64517       -1.91630       -0.15385
C          2.47511       -2.03009        0.83245
C          3.21726       -2.42050       -0.44140
N          1.21596       -1.35040        0.48115
N          2.36414       -3.28172       -1.25394
H          0.63307       -1.09305        1.33243
