44
2msa2tma_26.log	Energy: -1052597.9884463
S          1.80877       -1.91806       -0.18522
O          2.13826       -1.05835       -1.32524
O          0.44109       -2.40319       -0.06925
O          2.27892       -1.23603        1.14661
H          1.61512       -0.50287        1.51599
C          2.91681       -3.30929       -0.20676
H          2.71000       -3.86165       -1.12396
H          3.94188       -2.93980       -0.20144
H          2.71421       -3.92345        0.67000
S         -0.52798        0.85092        1.48234
O         -1.07934        2.10940        1.97895
O          0.83334        0.55504        2.07010
O         -0.42992        0.77663       -0.01462
H          0.84950        1.46543       -0.60237
C         -1.58330       -0.49685        1.95023
H         -1.10596       -1.41732        1.60813
H         -1.68607       -0.47605        3.03556
H         -2.54612       -0.36500        1.44517
N          1.58834        2.15260       -0.95235
C          2.84948        1.89195       -0.21473
H          2.63707        1.93405        0.85437
H          3.19721        0.89331       -0.47620
H          3.58727        2.64798       -0.49474
C          1.74022        1.93823       -2.40984
H          2.06099        0.90913       -2.56906
H          0.77324        2.09780       -2.88829
H          2.47527        2.64455       -2.80404
C          1.03418        3.49020       -0.63047
H          0.07636        3.60481       -1.13801
H          0.86724        3.55171        0.44588
H          1.73600        4.26089       -0.95760
N         -3.77099       -0.54752       -0.56150
C         -3.65300        0.78311       -1.13269
H         -4.35284        1.46289       -0.63666
H         -2.63757        1.15543       -0.97532
H         -3.87208        0.79287       -2.21959
C         -2.79487       -1.45640       -1.14328
H         -1.78515       -1.06747       -0.99157
H         -2.85919       -2.43245       -0.65264
H         -2.95980       -1.60490       -2.22860
C         -5.11976       -1.06303       -0.69457
H         -5.19530       -2.04013       -0.20754
H         -5.82853       -0.38385       -0.21072
H         -5.42418       -1.18262       -1.75354
