38
2msa2dma_220.log	Energy: -1003271.3900767
S         -1.61305       -2.37892       -0.05235
O         -2.22280       -3.69234       -0.06465
O         -1.80189       -1.47582       -1.18338
O         -0.05218       -2.59674        0.17633
H          0.46995       -1.79802       -0.13212
C         -2.10779       -1.51927        1.42588
H         -3.17975       -1.33467        1.34235
H         -1.89325       -2.16153        2.27998
H         -1.55037       -0.58167        1.47402
S          0.86945        0.83955       -0.34093
O         -0.00371        0.93416        0.83774
O          1.41892       -0.54451       -0.54115
O          2.02210        1.80746       -0.30428
H          3.28361        1.10076        0.11364
C         -0.08084        1.24385       -1.78379
H         -0.80599        0.43843       -1.91626
H         -0.59220        2.19108       -1.59416
H          0.60151        1.30425       -2.63149
N         -2.33303        2.77863        0.07952
C         -3.31138        1.72609       -0.13621
C         -2.90606        3.96591        0.68559
H         -1.57737        2.41456        0.65330
H         -4.04872        2.05436       -0.87758
H         -2.81873        0.83085       -0.52555
H         -3.86317        1.44674        0.78090
H         -3.63105        4.41516       -0.00291
H         -3.42993        3.76886        1.63895
H         -2.12039        4.70376        0.87115
N          4.15096        0.51869        0.42001
C          4.56458       -0.32873       -0.72496
C          3.77260       -0.25519        1.62876
H          4.89025        1.18045        0.65151
H          3.69818       -0.92417       -1.01484
H          4.85596        0.31886       -1.55209
H          5.39943       -0.96755       -0.43122
H          2.95627       -0.92192        1.35029
H          4.63199       -0.82362        1.98840
H          3.42563        0.44016        2.39323
