32
2msa1a1dma_150.log	Energy: -953957.1089022
S          1.06816       -1.77284        0.12154
O          2.10234       -2.77601        0.22659
O          1.14764       -0.64253        1.07506
O         -0.31999       -2.49081        0.28884
H         -1.10536       -1.89054        0.05210
C          1.01956       -1.07939       -1.51212
H          1.95778       -0.53117       -1.64062
H          0.92816       -1.90221       -2.22100
H          0.16745       -0.39779       -1.57074
S         -2.47441        0.42640       -0.17509
O         -2.76458        0.68412        1.26789
O         -2.27962       -1.02082       -0.46936
O         -1.35037        1.26206       -0.65737
H         -0.16372        2.16904        1.30599
C         -3.93727        0.89150       -1.07343
H         -4.76454        0.28136       -0.71115
H         -4.12459        1.94945       -0.89024
H         -3.75443        0.70708       -2.13197
N         -0.31784        1.43667        1.99939
H         -1.34118        1.16737        1.92165
H         -0.05616        1.74431        2.93126
H          0.24393        0.60587        1.70020
N          3.05471        1.29865       -0.41848
C          2.01552        2.29401       -0.60012
C          4.37513        1.87565       -0.23920
H          2.81929        0.69441        0.36257
H          2.20344        2.85871       -1.51964
H          1.04137        1.80763       -0.71014
H          1.96210        3.03337        0.22519
H          4.67706        2.39044       -1.15783
H          4.42881        2.60756        0.58701
H          5.10141        1.08230       -0.04618
