43
2msa1eda1tma_85.log	Energy: -1062681.5143838
S         -0.78016       -2.22113       -0.44089
O         -1.94554       -2.11111       -1.31705
O         -1.03156       -1.85324        0.98110
O          0.39965       -1.44693       -0.97713
C         -0.26511       -3.92833       -0.42105
H         -1.08889       -4.52186       -0.02408
H         -0.03873       -4.22062       -1.44661
H          0.61647       -4.01727        0.21433
S          2.97566        0.47654        0.26331
O          2.14053        1.24975        1.19788
O          3.11691        1.01360       -1.08015
O          2.51253       -1.01718        0.24581
H          1.61069       -1.19130       -0.26713
C          4.57523        0.27898        1.00808
H          5.00331        1.27681        1.10806
H          4.44720       -0.18811        1.98399
H          5.18456       -0.33964        0.34991
H         -1.15790        1.39670        3.11239
H         -1.42391        2.67975        1.90626
H         -3.57570        1.84607        2.58582
H         -3.29127        1.30622        0.92845
H         -4.13733       -0.41491        2.55625
H         -2.71758       -0.88714        1.88757
H          0.34214        1.11915        1.25030
H         -0.75236       -0.13459        1.20555
C         -1.52139        1.60897        2.10472
C         -2.97276        1.16583        1.97586
N         -0.65920        0.89879        1.13042
N         -3.15355       -0.18524        2.48343
H         -0.92960        1.17644        0.13037
N         -1.32063        1.80771       -1.42255
C         -2.51252        1.17265       -1.98552
H         -2.36844        0.09042       -2.02871
H         -3.37825        1.38297       -1.34950
H         -2.72829        1.55295       -2.99783
C         -1.51564        3.24446       -1.26020
H         -2.37610        3.43152       -0.60923
H         -0.62574        3.68866       -0.80347
H         -1.69581        3.74748       -2.22483
C         -0.14461        1.53052       -2.25293
H          0.75106        1.95030       -1.78712
H         -0.00659        0.45120       -2.33635
H         -0.25656        1.96591       -3.25950
