41
2msa1dma1tma_72.log	Energy: -1027941.9805419
S         -2.53307        0.01111       -0.40755
O         -2.18111        1.08261       -1.33242
O         -2.05433        0.13774        0.96949
O         -2.12534       -1.38960       -0.98677
H         -1.10189       -1.56425       -0.88912
C         -4.29898       -0.18170       -0.39636
H         -4.71479        0.74970       -0.01075
H         -4.63153       -0.35864       -1.41879
H         -4.55470       -1.01815        0.25311
S          1.07355       -1.97550        0.54966
O          2.13184       -2.97626        0.45010
O          0.32209       -1.80745       -0.75324
O          1.53155       -0.63581        1.02680
H          1.77513        0.41060       -0.25471
C         -0.12955       -2.53055        1.74086
H         -0.53194       -3.48280        1.39358
H          0.38534       -2.65741        2.69348
H         -0.91024       -1.77159        1.81601
N          0.31060        2.20047        1.14594
C         -0.67461        3.26525        1.03231
C          1.13689        2.31972        2.33739
H         -0.17688        1.30787        1.17388
H         -0.16713        4.22469        0.87214
H         -1.32375        3.06895        0.17489
H         -1.30825        3.36679        1.92975
H          1.76403        3.21816        2.26641
H          0.55070        2.40040        3.26870
H          1.78646        1.44418        2.41378
N          2.13815        0.85608       -1.13941
C          0.96786        1.20663       -1.98219
H          0.41792        0.29216       -2.19967
H          0.33014        1.88300       -1.41575
H          1.32330        1.67328       -2.90423
C          2.90883        2.05582       -0.73952
H          2.22034        2.72685       -0.22584
H          3.70353        1.74882       -0.05826
H          3.33528        2.52146       -1.63120
C          2.99731       -0.16762       -1.78570
H          3.77308       -0.46951       -1.08164
H          2.38149       -1.03360       -2.02932
H          3.44127        0.25817       -2.68826
