35
2msa1ma1dma_106.log	Energy: -978624.9985604
S         -2.18221       -0.92976       -0.02845
O         -1.49537       -1.66142        1.04970
O         -1.50796       -0.92801       -1.32383
O         -2.52379        0.51408        0.42790
H         -1.62909        1.10579        0.61174
C         -3.81090       -1.61329       -0.20274
H         -3.68860       -2.65129       -0.51284
H         -4.31506       -1.55137        0.76104
H         -4.34153       -1.04120       -0.96329
S          0.47269        2.28122       -0.17869
O          1.00039        3.60533        0.11142
O         -0.50595        1.79912        0.88252
O          1.49733        1.21866       -0.39558
H          1.24840       -0.00855        0.70639
C         -0.47273        2.36302       -1.68948
H         -1.26508        3.09993       -1.55328
H          0.20821        2.67912       -2.48025
H         -0.88195        1.37350       -1.90141
N          1.20506       -0.81078        1.38097
H          0.23607       -1.16610        1.37055
C          1.61290       -0.35301        2.72198
H          1.57657       -1.18411        3.42694
H          2.62678        0.04419        2.66764
H          0.93458        0.43858        3.04070
H          1.83519       -1.54160        0.96034
N          2.72325       -2.36441       -0.37894
C          3.74697       -1.40681       -0.80604
C          1.64803       -2.50244       -1.36635
H          3.15179       -3.27005       -0.21801
H          3.29369       -0.41415       -0.89222
H          4.54200       -1.36114       -0.05712
H          4.19173       -1.66646       -1.77793
H          1.12639       -1.54637       -1.47229
H          2.01984       -2.80118       -2.35718
H          0.92142       -3.24156       -1.02066
