42
2msa2eda_202.log	Energy: -1072757.4588773
S         -2.73165        0.21966        0.38763
O         -2.50940       -1.29401        0.06141
O         -2.08558        1.06739       -0.61376
O         -2.42832        0.51167        1.78641
C         -4.49135        0.30009        0.15014
H         -4.71364        0.02301       -0.87988
H         -4.96568       -0.38180        0.85511
H         -4.78859        1.33042        0.34742
S          0.88039       -2.42584       -0.41278
O          2.18956       -2.18053        0.21731
O          0.67124       -1.69282       -1.68484
O         -0.24279       -2.20000        0.56155
H         -1.53962       -1.63641        0.23646
C          0.81085       -4.16132       -0.81694
H          1.61985       -4.37769       -1.51486
H          0.93338       -4.72689        0.10674
H         -0.15760       -4.36654       -1.27347
H          1.01184        2.21220       -2.92136
H         -0.59017        1.65520       -2.38668
H         -0.41412        4.04242       -1.95534
H         -0.50377        3.14380       -0.43913
H          1.95441        4.30050       -1.56197
H          1.25884        4.62213       -0.11922
H          0.95106        0.09132       -1.57624
H          1.98306        1.24912       -0.92557
C          0.36573        2.05714       -2.05082
C          0.14102        3.35786       -1.29685
N          0.99874        1.04829       -1.18219
N          1.40871        3.89491       -0.80851
H          0.55785        0.95449       -0.22095
H          3.15695       -0.02729        2.43952
H          3.82755        1.58256        2.16712
H          1.61048        1.72310        3.11513
H          1.67550        2.46845        1.50326
H          0.74100       -0.30912        1.76116
H         -0.28933        0.94132        1.92927
H          4.33246        0.62308        0.21211
H          3.07036       -0.41096        0.22060
C          3.07384        0.87235        1.81174
C          1.70616        1.51176        2.03987
N          3.33839        0.55939        0.39947
N          0.61174        0.67623        1.53917
