37
2msa1ma1eda_489.log	Energy: -1013351.0804817
S          2.46530        0.38854       -0.18710
O          2.08612        0.35238        1.23691
O          1.78157        1.37220       -1.01411
O          2.35457       -1.04340       -0.80084
H          1.40849       -1.45969       -0.61254
C          4.21738        0.64159       -0.28807
H          4.41744        1.63242        0.12046
H          4.71398       -0.13159        0.29692
H          4.50502        0.58999       -1.33790
S         -1.23701       -1.70209       -0.75387
O         -1.87040       -2.88016       -1.32077
O          0.14515       -1.95696       -0.18932
O         -2.03417       -1.01324        0.31641
H         -1.08063       -0.60597        1.54293
C         -1.01439       -0.49675       -2.05091
H         -0.45698       -0.97237       -2.85892
H         -2.00377       -0.19269       -2.39468
H         -0.46841        0.36370       -1.65960
N         -0.37052       -0.43829        2.31678
H          0.49713       -0.08303        1.87004
C         -0.09388       -1.71254        3.02114
H          0.67168       -1.55476        3.78076
H         -1.01379       -2.07792        3.47678
H          0.25286       -2.42434        2.27282
H         -0.72627        0.28197        2.94179
H         -0.69340        1.39636        0.37003
H         -0.50245        2.91510        1.25984
H         -2.66522        1.94488        1.79197
H         -2.90456        3.43169        0.85963
H         -3.15466        0.70186       -0.16467
H         -4.27950        1.90193       -0.18963
H          0.09181        3.02828       -1.13553
H         -1.50797        2.85917       -1.47950
C         -1.05672        2.43652        0.44218
C         -2.54068        2.40098        0.79275
N         -0.84555        3.18934       -0.78250
N         -3.28770        1.70700       -0.25204
