22
2msa1a_16.log	Energy: -869135.5557857
S         -2.25621       -0.12239       -0.09193
O         -2.37117        1.30502        0.19035
O         -1.51064       -0.55831       -1.25357
O         -3.77078       -0.69547       -0.19722
H         -4.36685        0.04889       -0.36645
C         -1.70096       -1.00643        1.33949
H         -0.64742       -0.74215        1.47013
H         -2.30155       -0.69470        2.19332
H         -1.81652       -2.07215        1.14108
S          2.40341       -0.23323        0.00697
O          3.48782       -0.71340        0.84197
O          2.66960        0.78465       -1.00753
O          1.22933        0.28988        0.93222
H          0.88978        1.25071        0.59305
C          1.64739       -1.63606       -0.78955
H          2.38292       -2.04277       -1.48482
H          1.40470       -2.37417       -0.02440
H          0.75137       -1.30320       -1.31411
N          0.40930        2.53178        0.02993
H         -0.59882        2.50716       -0.11094
H          0.87921        2.59253       -0.87019
H          0.65109        3.35336        0.57373
