35
2msa1ma1dma_03.log	Energy: -978641.8328950
S         -2.60630       -0.20621       -0.15661
O         -2.31205        1.10859       -0.79613
O         -1.99351       -0.33838        1.17887
O         -2.28476       -1.35808       -1.04992
H         -0.86076       -2.11627       -0.69335
C         -4.37800       -0.24921        0.04888
H         -4.66470        0.57808        0.69841
H         -4.83954       -0.14682       -0.93323
H         -4.64351       -1.20379        0.50339
S          2.60642       -0.20613       -0.15643
O          2.28456       -1.35798       -1.04964
O          1.99471       -0.33860        1.17951
O          2.31132        1.10864       -0.79563
H          0.84939        1.75352       -0.29719
C          4.37828       -0.24859        0.04768
H          4.64442       -1.20307        0.50205
H          4.83907       -0.14613       -0.93478
H          4.66523        0.57882        0.69695
N         -0.00007       -2.65523       -0.40985
H          0.00011       -3.53101       -0.92776
C          0.00008       -2.88622        1.05506
H          0.89848       -3.43801        1.33141
H         -0.00075       -1.91383        1.54316
H         -0.89740       -3.43953        1.33138
H          0.86040       -2.11596       -0.69337
N         -0.00026        2.26391        0.04677
C         -0.00034        3.61699       -0.54054
C         -0.00015        2.23828        1.52550
H         -0.84990        1.75352       -0.29714
H          0.89410        4.15160       -0.21664
H          0.00049        3.52509       -1.62665
H         -0.89562        4.15096       -0.21793
H          0.89738        2.74036        1.89005
H         -0.89754        2.74052        1.89021
H         -0.00025        1.19762        1.84531
