38
2msa2dma_161.log	Energy: -1003278.7766287
S          3.07148        0.00786       -0.19814
O          2.67940        1.39653        0.10359
O          2.61943       -0.52182       -1.47697
O          2.65537       -0.93023        0.98053
H          1.60893       -0.93837        1.09086
C          4.83700       -0.10642       -0.07877
H          5.24841        0.52903       -0.86343
H          5.14133        0.24348        0.90700
H          5.11935       -1.14708       -0.23540
S         -0.85075       -1.36312        0.26120
O         -1.99158       -1.95638        0.95213
O          0.19342       -0.82183        1.21520
O         -1.21178       -0.29466       -0.71795
H         -0.53758        1.11308       -0.29575
C         -0.03338       -2.63993       -0.67475
H          0.27720       -3.42046        0.02052
H         -0.75464       -3.03208       -1.39227
H          0.82420       -2.19981       -1.18715
N         -0.06570        2.01198        0.00327
C         -0.52932        2.36435        1.36334
C         -0.30914        3.04695       -1.02044
H          0.94665        1.79323        0.04331
H         -1.59908        2.57362        1.32943
H         -0.34197        1.50777        2.01124
H          0.01681        3.24057        1.71665
H         -1.38377        3.21558       -1.10607
H          0.19417        3.97203       -0.73460
H          0.08248        2.69100       -1.97341
N         -4.48476       -0.13138        0.18337
C         -4.04460        1.22526        0.42289
C         -4.64581       -0.41194       -1.23249
H         -3.80560       -0.77961        0.57360
H         -4.82954        1.93157        0.12582
H         -3.85286        1.36894        1.49120
H         -3.12578        1.48772       -0.14002
H         -5.46422        0.19529       -1.63808
H         -3.73449       -0.20430       -1.82061
H         -4.91099       -1.46372       -1.36927
