41
2msa1dma1tma_163.log	Energy: -1027932.3254804
S          1.66584        1.76671       -0.13226
O          2.75199        1.30328       -1.01164
O          2.03982        1.97279        1.28019
O          0.45121        0.87351       -0.24161
C          1.11593        3.34721       -0.76105
H          1.95324        4.04277       -0.69708
H          0.80996        3.21805       -1.79989
H          0.28510        3.69321       -0.14522
S         -3.04052       -0.02900       -0.18490
O         -2.51933       -1.36174       -0.46409
O         -2.94225        0.51427        1.15363
O         -4.61661       -0.05656       -0.58761
H         -4.84115       -0.96015       -0.85211
C         -2.40857        1.13743       -1.35535
H         -1.33830        1.22650       -1.13131
H         -2.57740        0.74154       -2.35656
H         -2.93025        2.08274       -1.20507
N          2.00062       -1.73135       -1.23192
C          0.79652       -1.91850       -2.02579
C          3.11510       -2.53497       -1.70716
H          2.26414       -0.74640       -1.25921
H          0.42476       -2.94414       -1.90714
H          0.02190       -1.23408       -1.67241
H          0.95503       -1.74386       -3.10431
H          2.90015       -3.59986       -1.55559
H          3.33415       -2.38681       -2.77865
H          4.01708       -2.28677       -1.14007
N          0.71486       -0.99700        1.70579
C          2.15376       -1.16345        2.03572
H          2.62356       -1.67839        1.19750
H          2.59222       -0.17226        2.15843
H          2.23579       -1.74674        2.95633
C         -0.00008       -0.21454        2.74625
H          0.49373        0.75441        2.83028
H         -1.03471       -0.07375        2.43127
H          0.04407       -0.75892        3.69260
C          0.06532       -2.29965        1.42792
H         -0.95690       -2.12277        1.09277
H          0.63323       -2.78595        0.63431
H          0.07317       -2.90040        2.34089
H          0.65736       -0.40856        0.83372
