40
2msa1dma1eda_181.log	Energy: -1038023.0588912
S          1.77239        1.74284        0.52138
O          2.86328        2.29592        1.29443
O          0.42724        2.30295        1.11187
O          1.67477        0.27621        0.41553
H          0.35225       -0.92363        0.59907
C          1.81099        2.39020       -1.13218
H          1.83352        3.47781       -1.06235
H          2.72071        2.01513       -1.60288
H          0.91442        2.03886       -1.64961
S         -1.98339        0.56335       -0.93579
O         -2.16718       -0.90116       -1.04534
O         -1.05724        1.15239       -1.91345
O         -1.61093        0.93058        0.48439
H         -0.39236        1.76811        0.80742
C         -3.58343        1.30359       -1.20084
H         -3.89926        1.06025       -2.21563
H         -4.27964        0.89149       -0.47038
H         -3.48191        2.38190       -1.07720
N          1.34188       -2.83350       -1.52313
C          2.75532       -2.65841       -1.18556
C          0.86323       -1.81902       -2.46990
H          1.19772       -3.75692       -1.91907
H          2.87785       -1.70211       -0.66779
H          3.07733       -3.45931       -0.51460
H          3.40716       -2.65727       -2.07187
H          0.96220       -0.83002       -2.01318
H          1.42772       -1.82446       -3.41336
H         -0.19758       -1.97430       -2.67566
H         -0.62255       -3.33044        2.01353
H          0.99725       -2.60692        2.21645
H         -0.55341       -1.87241        3.99603
H          0.00563       -0.50956        3.02230
H         -2.53002       -0.85029        3.53711
H         -2.10529       -0.37566        2.02712
H          0.37984       -2.42245       -0.09996
H         -1.08563       -1.68943        0.28782
C         -0.05387       -2.39815        1.99958
C         -0.62878       -1.40978        3.00726
N         -0.12229       -1.84180        0.63033
N         -2.02677       -1.13228        2.70533
