34
2msa1a1eda_41.log	Energy: -988711.1213014
S         -2.57170       -0.69622       -0.11622
O         -2.50617       -2.11749       -0.50045
O         -2.24659        0.25253       -1.21811
O         -1.74533       -0.40608        1.09964
C         -4.26173       -0.34425        0.33085
H         -4.54348       -1.00858        1.14788
H         -4.32805        0.69889        0.64033
H         -4.88435       -0.52749       -0.54513
S          2.58408       -0.59559       -0.03240
O          2.39730        0.88568       -0.03618
O          1.64705       -1.24166       -1.00374
O          2.51641       -1.20864        1.30602
C          4.23102       -0.86784       -0.65883
H          4.30291       -0.41852       -1.64919
H          4.93338       -0.39760        0.02977
H          4.40254       -1.94320       -0.70908
N          0.00582       -2.47086        0.81042
H         -0.63936       -3.22051        0.56841
H          0.70162       -2.72195        1.51063
H          0.53142       -2.14512       -0.03384
H         -0.57592       -1.65853        1.12950
H          0.25843        3.71741       -1.06040
H         -1.40995        3.08550       -1.21495
H         -1.17054        3.69803        1.06015
H         -1.04092        1.93320        1.04045
H          0.68367        3.16641        2.37267
H          1.38774        2.24795        1.21806
H          0.28929        1.70051       -2.30664
H          0.95412        1.31040       -0.83269
C         -0.42893        2.92210       -0.76413
C         -0.52900        2.86503        0.75495
N          0.07893        1.62978       -1.31311
N          0.78101        3.05177        1.37052
H         -0.68043        0.91234       -1.21725
