32
2msa1a1dma_87.log	Energy: -953958.0340959
S          1.90884       -1.28381       -0.30029
O          2.42913       -2.62448       -0.50221
O          1.24104       -1.03042        0.99680
O          0.92969       -0.89054       -1.46391
H         -0.05423       -0.89476       -1.18488
C          3.17871       -0.07240       -0.50111
H          3.93199       -0.27469        0.26148
H          3.59877       -0.19682       -1.49967
H          2.70052        0.91058       -0.36477
S         -2.28770        0.14550       -0.22169
O         -1.51074       -1.02594       -0.76664
O         -1.60773        1.42848       -0.40129
O         -2.70059       -0.15598        1.18349
H         -1.76974       -1.35002        1.72671
C         -3.79339        0.19853       -1.17202
H         -3.52813        0.38969       -2.21191
H         -4.30186       -0.75997       -1.07053
H         -4.40832        1.00742       -0.77683
N         -1.06875       -2.14424        1.84275
H         -1.32108       -2.86875        1.17322
H         -1.05380       -2.51773        2.78731
H         -0.12725       -1.76894        1.56589
N          1.24175        2.39415        0.18473
C          1.34582        3.70723       -0.42993
C          1.32657        2.44545        1.63549
H          0.34800        1.98031       -0.07348
H          2.34449        4.12365       -0.25154
H          1.20514        3.61674       -1.51034
H          0.60605        4.43022       -0.04460
H          2.31956        2.80290        1.93493
H          0.57634        3.11295        2.09318
H          1.19174        1.43902        2.04072
