38
2msa1ma1tma_50.log	Energy: -1003282.9053085
S         -0.81710       -1.78731       -0.46534
O         -0.11046       -1.59365       -1.74584
O         -2.27224       -1.93156       -0.55090
O         -0.44521       -0.65576        0.49273
C         -0.15536       -3.25686        0.29977
H         -0.64594       -3.39165        1.26388
H         -0.37026       -4.09632       -0.36186
H          0.92039       -3.13083        0.42807
S          2.76223        0.45052        0.62154
O          4.02188        0.66427        1.29930
O          1.92843        1.60120        0.26940
O          1.90691       -0.54528        1.50782
H          0.95877       -0.58584        1.15263
C          3.04041       -0.48945       -0.86710
H          3.61407        0.14317       -1.54605
H          3.61559       -1.37691       -0.60200
H          2.07501       -0.76402       -1.30244
N         -3.02518        0.54807        1.44931
H         -3.44745       -0.26682        1.01057
C         -3.74145        0.91450        2.66881
H         -3.78381        0.12053        3.42832
H         -3.26393        1.78765        3.12379
H         -4.76842        1.19751        2.42012
H         -2.07553        0.24910        1.65542
N         -0.99143        1.59095       -1.11583
C         -1.02556        2.81821       -0.27903
H         -1.78625        2.67068        0.48955
H         -0.04214        2.95205        0.17173
H         -1.28027        3.66963       -0.91426
C          0.03110        1.66399       -2.19189
H          0.98964        1.90825       -1.73670
H          0.08076        0.68609       -2.67282
H         -0.27070        2.43384       -2.90531
C         -2.33379        1.26887       -1.67183
H         -2.27364        0.31349       -2.19357
H         -3.03013        1.19364       -0.83609
H         -2.62188        2.06678       -2.36002
H         -0.72624        0.80615       -0.47885
