32
2msa2ma_35.log	Energy: -953969.4526347
S         -1.61611       -1.47238       -0.00517
O         -2.28815       -0.69691        1.06906
O         -0.66299       -2.48605        0.46026
O         -0.99803       -0.53708       -1.01769
H          0.50318       -0.30473       -1.10648
C         -2.91566       -2.31523       -0.88766
H         -3.39794       -3.00068       -0.19042
H         -3.62589       -1.57319       -1.25209
H         -2.46360       -2.86172       -1.71542
S          2.42902       -0.21401       -0.03422
O          3.71539        0.33624       -0.40379
O          1.46960       -0.01261       -1.27378
O          1.77354        0.30758        1.17376
H          0.22274        1.10931        1.48964
C          2.53251       -1.97799        0.13558
H          2.96266       -2.37702       -0.78303
H          3.18495       -2.17713        0.98660
H          1.52374       -2.36202        0.31230
N         -0.71396        1.54425        1.44196
H         -0.75471        2.00486        0.48642
C         -0.94819        2.49336        2.54375
H         -1.93649        2.93994        2.43151
H         -0.89340        1.96973        3.49821
H         -0.18927        3.27566        2.51552
H         -1.39796        0.75716        1.42682
N         -0.68606        2.41749       -1.22523
H          0.28815        2.33319       -1.50539
C         -1.29760        3.61043       -1.81397
H         -1.24157        3.63872       -2.90925
H         -2.35086        3.65716       -1.52501
H         -0.80484        4.50437       -1.42301
H         -1.13645        1.56354       -1.55260
