40
2msa1dma1eda_98.log	Energy: -1038028.7589237
S         -2.37187        0.20325       -0.58766
O         -1.64311        1.03986       -1.55479
O         -2.13022        0.58109        0.83237
O         -2.16981       -1.26713       -0.80004
H         -1.19545       -1.96257        0.31348
C         -4.11197        0.47357       -0.89406
H         -4.32203        1.53128       -0.73261
H         -4.31993        0.19646       -1.92771
H         -4.68867       -0.14397       -0.20529
S          2.29226       -0.73372       -0.66638
O          2.73650       -2.12896       -0.61910
O          3.32143        0.31215       -0.78361
O          1.40643       -0.41063        0.54590
H          1.75525        0.99414        1.10521
C          1.19246       -0.57871       -2.06306
H          1.77600       -0.77423       -2.96352
H          0.38507       -1.30568       -1.96004
H          0.75883        0.42105       -2.07974
N         -0.50354       -2.24336        1.05876
C          0.05307       -3.58286        0.78498
C         -1.14898       -2.09480        2.37711
H          0.26082       -1.53144        0.95463
H         -0.75683       -4.31396        0.75789
H          0.57976       -3.55553       -0.16900
H          0.76856       -3.84336        1.56648
H         -1.93793       -2.84287        2.47762
H         -0.40471       -2.23668        3.16335
H         -1.58058       -1.09379        2.42371
H          2.15962        3.94040        0.74159
H          2.39984        2.64827       -0.47510
H          0.10419        3.88852       -0.59595
H          0.01409        2.13729       -0.52448
H         -0.89298        3.94958        1.47112
H         -1.20730        2.33864        1.25692
H          2.88462        1.99458        1.88067
H          1.21747        2.21952        2.14834
C          1.79606        2.97682        0.37241
C          0.29901        3.02433        0.04724
N          1.95683        1.98370        1.46610
N         -0.47209        3.04690        1.29279
