40
2msa1dma1eda_262.log	Energy: -1038018.5714580
S          0.64476        1.68002       -0.30184
O          1.87572        1.59804       -1.09507
O          0.72020        0.97121        1.00694
O         -0.56358        1.22274       -1.07438
C          0.35524        3.39668        0.07991
H          1.20158        3.76033        0.66286
H          0.27437        3.93881       -0.86242
H         -0.56962        3.47185        0.65266
S         -3.40079       -0.35028        0.12171
O         -2.79441       -1.00770        1.28874
O         -3.33692       -1.07875       -1.13662
O         -2.83382        1.10159       -0.03658
H         -1.88215        1.13579       -0.46732
C         -5.08635        0.03172        0.52495
H         -5.09701        0.64049        1.42854
H         -5.52769        0.56255       -0.31788
H         -5.59213       -0.91958        0.69229
N          3.94403       -0.28965        0.27583
C          5.26448       -0.28222       -0.33428
C          3.97165        0.04813        1.69171
H          3.34499        0.37796       -0.20840
H          5.87989       -1.07664        0.10381
H          5.17382       -0.47566       -1.40662
H          5.80005        0.67246       -0.19810
H          4.46910       -0.75094        2.25411
H          4.50577        0.99092        1.90003
H          2.94663        0.15040        2.05588
H         -0.53815       -3.03213       -0.73432
H         -0.67075       -1.33661       -1.25551
H          1.43988       -2.56166       -2.10502
H          1.72761       -1.03965       -1.26914
H          2.55070       -3.62302       -0.39751
H          3.00758       -2.09729        0.10434
H         -1.04285       -1.67969        1.15053
H          0.59027       -2.23310        1.22824
C         -0.07536       -2.04389       -0.67731
C          1.38612       -2.07033       -1.12767
N         -0.09509       -1.63205        0.75196
N          2.21419       -2.71382       -0.10809
H          0.23048       -0.64038        0.86512
