43
2msa1eda1tma_263.log	Energy: -1062668.3435750
S         -1.61464        1.52974        0.76367
O         -1.12348        0.34111        1.47599
O         -2.29439        1.30072       -0.50112
O         -0.44885        2.56474        0.60857
H          0.41712        2.13110        0.21713
C         -2.68410        2.44952        1.84272
H         -3.56708        1.83312        2.01420
H         -2.15764        2.64543        2.77607
H         -2.95474        3.37790        1.34035
S          1.97559        0.72781       -1.44199
O          3.20673        1.14415       -2.09846
O          1.65833        1.53463       -0.20521
O          1.93656       -0.72662       -1.06802
H          1.82400       -0.91754        0.50765
C          0.61540        0.97503       -2.56667
H          0.53992        2.04341       -2.77229
H          0.84577        0.42586       -3.48002
H         -0.30292        0.59036       -2.11816
H         -3.13567       -1.49280        0.39098
H         -3.86972       -3.03765       -0.08040
H         -1.49063       -3.32533        0.28144
H         -1.86205       -3.56928       -1.43828
H         -0.77695       -1.07103       -0.34035
H          0.00741       -2.08490       -1.36584
H         -4.59184       -1.19676       -1.50899
H         -3.04957       -1.00312       -2.01350
C         -3.20307       -2.23723       -0.42218
C         -1.80985       -2.81479       -0.64634
N         -3.71859       -1.68660       -1.66900
N         -0.90634       -1.75763       -1.07662
N          1.98161       -1.25240        1.50689
C          3.31722       -1.89400        1.46274
H          3.29776       -2.69237        0.72099
H          4.05164       -1.14766        1.16001
H          3.56139       -2.29383        2.44958
C          1.96231       -0.08058        2.41777
H          2.68049        0.65352        2.05408
H          0.96293        0.35215        2.39451
H          2.21889       -0.41485        3.42645
C          0.90924       -2.22409        1.83001
H         -0.04620       -1.69967        1.82790
H          0.90005       -3.00209        1.06566
H          1.10365       -2.66111        2.81260
