32
2msa1a1dma_168.log	Energy: -953946.3643337
S         -2.28502       -1.21396        0.06296
O         -2.86982        0.09638       -0.17817
O         -1.57836       -1.42826        1.32022
O         -1.34935       -1.63362       -1.15233
H         -0.47172       -1.15841       -1.09675
C         -3.53514       -2.45988       -0.13889
H         -4.27810       -2.28515        0.63996
H         -3.97973       -2.34482       -1.12702
H         -3.07177       -3.43869       -0.02140
S          1.87010        0.01459        0.03859
O          0.91893       -0.30912       -1.03435
O          2.96658        0.90694       -0.32652
O          2.46876       -1.33099        0.60776
H          3.46368       -1.41842        0.33207
C          0.97266        0.65319        1.41639
H          0.48996        1.58014        1.06597
H          0.22898       -0.09088        1.70981
H          1.68756        0.84952        2.21559
N          4.97447       -1.34866       -0.15943
H          5.19407       -1.95446       -0.94358
H          5.68382       -1.48238        0.55368
H          5.01502       -0.38269       -0.47978
N         -0.52843        3.20797        0.07459
C         -1.81342        3.38199        0.74051
C         -0.67271        2.72633       -1.29490
H         -0.02032        4.08596        0.07384
H         -2.30178        2.40715        0.83132
H         -1.65736        3.78667        1.74485
H         -2.49892        4.05297        0.19495
H         -1.16309        1.74938       -1.27711
H         -1.27940        3.39590       -1.92823
H          0.31308        2.60265       -1.75054
