34
2msa1a1eda_204.log	Energy: -988701.5822978
S          1.95033       -1.17473       -0.18328
O          2.45238       -0.78908        1.16469
O          1.45932       -0.00979       -0.95838
O          0.95878       -2.28372       -0.12968
H         -0.57798       -2.30911        0.09381
C          3.35138       -1.84613       -1.05348
H          4.11918       -1.07437       -1.10770
H          3.71084       -2.71252       -0.49861
H          3.02131       -2.13547       -2.05124
S         -2.30824       -0.99619        0.06412
O         -3.73103       -1.23672        0.12937
O         -1.58563       -2.39043        0.16359
O         -1.72426       -0.08093        1.06414
H         -0.34273        0.34611        2.01242
C         -1.84561       -0.37848       -1.53568
H         -2.23037       -1.07140       -2.28390
H         -2.29792        0.61172       -1.63134
H         -0.75450       -0.30664       -1.57228
N          0.54796        0.75980        2.34138
H          1.31382        0.08609        2.10704
H          0.51020        0.96467        3.33468
H          0.75027        1.62455        1.74976
H         -0.08228        2.28814       -1.71233
H         -0.73119        3.91813       -1.80066
H          1.49196        4.11653       -1.03534
H          0.46185        4.46647        0.36223
H          1.65226        1.81632       -0.13412
H          2.32178        2.94975        0.83797
H         -1.39342        1.92095        0.26495
H         -1.96219        3.46692        0.21849
C         -0.41453        3.13647       -1.10092
C          0.78824        3.66985       -0.31738
N         -1.57775        2.71412       -0.34096
N          1.43440        2.61220        0.47499
