32
2msa1a1dma_55.log	Energy: -953967.9726411
S         -0.95784       -1.54548       -0.08431
O         -0.58484       -1.08530        1.26903
O         -0.58604       -0.48713       -1.11558
O         -2.37201       -1.93294       -0.23051
H         -3.68340       -0.62933        0.44977
C          0.04771       -2.95352       -0.49268
H          1.09391       -2.64655       -0.43724
H         -0.17592       -3.73686        0.23201
H         -0.21376       -3.27181       -1.50180
S          2.75655        0.32995       -0.03298
O          3.88011        1.21553       -0.25713
O          2.81736       -1.06423       -0.45130
O          1.48880        1.01189       -0.72542
H          0.77176        0.32638       -0.90600
C          2.31866        0.37053        1.69312
H          3.13657       -0.10195        2.23880
H          2.21504        1.41359        1.99353
H          1.38576       -0.18431        1.82045
N         -4.09797        0.26813        0.72877
H         -4.21129        0.24249        1.73760
H         -5.02637        0.32301        0.32209
H         -2.82400        1.31273        0.13431
N         -1.91303        1.73530       -0.21493
C         -1.11247        2.16804        0.95231
C         -2.16465        2.79142       -1.21211
H         -1.41890        0.92930       -0.66839
H         -1.65626        2.94475        1.49356
H         -0.95008        1.29340        1.58468
H         -0.15017        2.54605        0.60349
H         -2.70920        3.61370       -0.74435
H         -1.21254        3.15505       -1.60226
H         -2.75623        2.37363       -2.02720
