40
2msa1dma1eda_14.log	Energy: -1038037.4181339
S          2.97977        0.43771        0.07711
O          3.48786       -0.81935        0.64969
O          2.67683        1.52053        1.02521
O          1.77422        0.16560       -0.81185
C          4.23184        1.04661       -1.04104
H          5.12727        1.25531       -0.45473
H          4.43286        0.27851       -1.78787
H          3.86209        1.95754       -1.51185
S         -2.60705       -1.02776       -0.17462
O         -1.92666       -2.26093       -0.66236
O         -2.91509       -0.04533       -1.22553
O         -1.85333       -0.41647        0.96946
C         -4.16108       -1.58162        0.50580
H         -3.95515       -2.30194        1.29744
H         -4.68962       -0.71359        0.90016
H         -4.73069       -2.04595       -0.29946
N          0.72771       -2.26607       -0.00089
C          1.56394       -3.29697       -0.64743
C          0.76120       -2.30722        1.47992
H          1.07716       -1.33378       -0.31792
H          1.22543       -4.28604       -0.33432
H          1.46481       -3.19882       -1.72864
H          2.60131       -3.13284       -0.35204
H          0.44547       -3.29820        1.81160
H          1.77721       -2.08718        1.80941
H          0.05903       -1.55858        1.84779
H         -0.26848       -2.33367       -0.31549
H         -0.34255        3.14802       -1.39256
H         -1.46845        1.77578       -1.62277
H         -2.71960        3.82449       -0.95938
H         -2.85776        2.53443        0.23596
H         -1.20761        4.94296        0.50784
H         -2.27367        4.30389        1.57215
H          0.52315        1.20747       -0.28914
H          0.00681        2.31546        0.86599
C         -1.05227        2.47788       -0.89891
C         -2.16171        3.25466       -0.20457
N         -0.30687        1.69628        0.11397
N         -1.58848        4.07296        0.86364
H         -0.92126        0.95299        0.52139
