25
2msa1ma_80.log	Energy: -893786.8325386
S          2.13512       -0.61338       -0.11002
O          1.04109       -1.07625       -0.95837
O          3.04288        0.40069       -0.61583
O          3.03002       -1.92161        0.24116
H          3.88441       -1.82555       -0.20431
C          1.51498       -0.20647        1.49269
H          0.85817        0.65122        1.31642
H          0.94430       -1.05664        1.86472
H          2.36357        0.03869        2.13061
S         -2.32931       -0.21411        0.12701
O         -2.73749        1.17244        0.27662
O         -1.58106       -0.85823        1.19723
O         -1.52339       -0.37101       -1.24135
H         -0.57378       -0.60084       -1.07059
C         -3.76987       -1.18036       -0.26238
H         -4.44406       -1.10624        0.59160
H         -4.23340       -0.75846       -1.15386
H         -3.46207       -2.21226       -0.42739
N          0.20067        2.15196       -0.27943
H          0.28186        1.97875       -1.27594
C          1.05530        3.26881        0.11759
H          0.83617        4.21673       -0.39410
H          0.94840        3.43780        1.19370
H          2.09942        3.00729       -0.07657
H         -0.77940        2.34569       -0.09317
