25
2msa1ma_44.log	Energy: -893790.8717417
S          1.38280       -0.91404       -0.17395
O          1.48566       -1.54335       -1.47880
O          0.95303        0.49208       -0.12415
O          2.75011       -1.02460        0.59900
H          3.18104       -0.06187        0.72422
C          0.31697       -1.89311        0.85524
H         -0.65069       -1.95213        0.35692
H          0.76765       -2.88072        0.95417
H          0.21465       -1.40095        1.82156
S         -2.90045        0.39306        0.14190
O         -2.37273        0.13754        1.46354
O         -4.32230        0.59604       -0.07922
O         -2.45868       -0.88213       -0.77504
H         -3.19151       -1.10590       -1.36581
C         -1.97252        1.70023       -0.61958
H         -2.17264        2.60307       -0.04044
H         -0.91534        1.42705       -0.57466
H         -2.32032        1.81809       -1.64573
N          3.67067        1.36361        0.77942
H          2.80763        1.86896        0.96666
C          4.19959        1.73510       -0.54203
H          4.42275        2.80344       -0.62854
H          5.10921        1.16373       -0.73643
H          3.45876        1.46613       -1.29749
H          4.33149        1.58342        1.51808
