34
2msa1a1eda_344.log	Energy: -988687.9610188
S         -2.48991       -0.28332       -0.43317
O         -3.73441       -0.81579       -0.96761
O         -1.30716       -1.19046       -0.72037
O         -2.52325       -0.01158        1.04705
H         -1.69768       -1.11907        1.73845
C         -2.13878        1.26635       -1.22773
H         -2.13523        1.08644       -2.30332
H         -2.94063        1.95658       -0.96316
H         -1.16886        1.64411       -0.89744
S          2.08307       -1.04531       -0.13718
O          1.42814       -1.76638        0.97207
O          2.95811        0.05832        0.20945
O          1.02137       -0.59412       -1.18019
H          0.00219       -0.80447       -0.93368
C          3.02167       -2.24674       -1.05244
H          2.35165       -3.05088       -1.35562
H          3.45086       -1.74818       -1.92140
H          3.80751       -2.61694       -0.39349
N         -1.07216       -1.93974        2.05402
H         -1.01851       -2.01691        3.06569
H         -0.12312       -1.80518        1.64089
H         -1.46592       -2.79156        1.65954
H          2.40281        2.84049        0.58210
H          1.53593        4.31341        0.11038
H          0.55194        3.41731        2.14232
H         -0.60226        3.30042        0.80399
H          0.94671        1.07000        1.90009
H         -0.69896        1.21423        1.75732
H          1.77995        2.99266       -1.81497
H          1.16414        1.66903       -1.08894
C          1.44573        3.22428        0.19147
C          0.34206        2.90265        1.19135
N          1.10740        2.68339       -1.12195
N          0.19340        1.45457        1.33903
