37
2msa1ma1eda_586.log	Energy: -1013340.5162280
S          1.68793       -1.36360        0.16915
O          0.70899       -0.79300        1.11899
O          3.05673       -1.47230        0.76815
O          1.74915       -0.59110       -1.11400
H          3.31877        0.28338       -1.20141
C          1.16293       -3.01093       -0.22753
H          1.16141       -3.58468        0.69981
H          0.15600       -2.94122       -0.64441
H          1.86980       -3.42947       -0.94377
S         -2.68708       -1.16068       -0.07491
O         -4.00368       -1.62330        0.31137
O         -1.81706       -2.02488       -0.86878
O         -1.92342       -0.76620        1.26785
H         -0.93560       -0.83071        1.15892
C         -2.84152        0.39970       -0.91062
H         -3.44150        0.21871       -1.80377
H         -3.33091        1.11096       -0.24442
H         -1.84750        0.76458       -1.17847
N          4.10445        0.52417       -0.55842
H          4.01035       -0.29589        0.10888
C          3.82119        1.79828        0.14294
H          4.57995        1.97025        0.90549
H          3.81073        2.61855       -0.57433
H          2.84106        1.70510        0.61215
H          4.99969        0.52023       -1.04065
H         -0.25507        4.55397        0.24587
H         -1.14224        3.96094        1.65698
H          0.73423        2.49929        1.19904
H         -0.77502        1.62698        0.94103
H          0.82141        2.77145       -1.24571
H          0.58658        1.17075       -0.93425
H         -2.65652        4.52568       -0.15279
H         -1.96531        3.36585       -1.09091
C         -0.91430        3.74233        0.60832
C         -0.14774        2.42740        0.54007
N         -2.16551        3.63923       -0.13338
N          0.17492        2.09793       -0.84659
