29
2msa1a1ma_107.log	Energy: -929295.8849634
S         -2.79191        0.25089        0.18932
O         -2.22664        1.38968       -0.56465
O         -2.58749        0.26748        1.62588
O         -2.33492       -1.09455       -0.45860
H         -1.35426       -1.37279       -0.24974
C         -4.52368        0.18144       -0.19113
H         -4.96751        1.10200        0.18856
H         -4.64037        0.10754       -1.27169
H         -4.94538       -0.68825        0.31188
S          1.22314       -1.00905       -0.13882
O          0.01069       -1.87080       -0.02214
O          1.34842       -0.05155        0.99799
O          1.30059       -0.30615       -1.44858
H          0.80427        1.43471       -1.18887
C          2.60728       -2.11682       -0.04419
H          2.52766       -2.66693        0.89372
H          2.55577       -2.79365       -0.89692
H          3.51689       -1.51123       -0.06050
N          0.42349        2.06165       -0.45148
H          0.78238        1.61386        0.41391
H         -0.61546        1.96018       -0.46268
H          0.72387        3.02579       -0.55152
N          4.30887        0.71274        0.83043
H          3.43703        0.51068        1.31313
C          4.08275        1.68069       -0.23535
H          3.66611        2.64756        0.09853
H          5.02463        1.88819       -0.75108
H          3.39940        1.24490       -0.97130
H          4.97550        1.06245        1.50872
