34
2msa1a1eda_46.log	Energy: -988713.3069545
S          2.47279       -0.68437       -0.00887
O          2.49042       -0.04585       -1.36170
O          1.51557       -1.79276        0.10895
O          2.28522        0.34753        1.06107
H          0.77184        0.27091        1.87987
C          4.11086       -1.34798        0.21824
H          4.28369       -2.08577       -0.56546
H          4.82919       -0.53143        0.14706
H          4.15132       -1.81665        1.20160
S         -2.46007       -1.05786       -0.12487
O         -3.88537       -1.19793       -0.39714
O         -2.08959       -1.17425        1.31726
O         -1.88393        0.22122       -0.69538
H         -0.48922        0.86112       -1.13953
C         -1.58896       -2.36970       -0.96179
H         -1.96651       -3.31350       -0.56679
H         -1.80560       -2.29099       -2.02785
H         -0.52088       -2.26441       -0.75773
N         -0.18792        0.42526        2.26297
H         -0.17258        0.39369        3.27787
H         -0.86775       -0.30098        1.89046
H         -0.53333        1.34984        1.92525
H         -1.19382        3.71148       -1.06205
H         -0.22099        4.30625        0.28353
H          1.29059        3.27264       -1.24367
H          1.19710        2.21944        0.17280
H         -0.01519        1.75226       -2.46136
H          1.14894        0.84096       -1.62084
H         -2.04765        3.25877        1.24002
H         -1.91248        1.90253        0.32583
C         -0.59408        3.39528       -0.19394
C          0.62796        2.62094       -0.66919
N         -1.37777        2.64380        0.78979
N          0.29093        1.45731       -1.53615
