38
2msa2dma_29.log	Energy: -1003289.0815453
S         -1.88849        1.23287       -0.29398
O         -2.65577        0.01181       -0.59359
O         -1.05192        1.75271       -1.38345
O         -1.08180        1.03993        0.98368
H          0.37213        1.58281        1.06905
C         -3.06696        2.50895        0.11546
H         -3.68188        2.68441       -0.76769
H         -3.67838        2.16293        0.94880
H         -2.51690        3.41082        0.38478
S          2.28782        1.00646        0.23840
O          3.63749        1.12880        0.75081
O          1.34433        1.85776        1.17768
O          1.71151       -0.33390        0.08529
H         -0.71421       -0.67469        1.15394
C          2.16121        1.83328       -1.32908
H          2.54627        2.84540       -1.20426
H          2.77315        1.27308       -2.03738
H          1.10755        1.83946       -1.61991
N         -0.10361       -2.77155       -1.25931
C          1.25502       -3.31928       -1.24724
C         -0.25908       -1.67694       -2.22670
H         -0.75879       -3.51083       -1.49724
H          1.94238       -2.53743       -0.91435
H          1.31016       -4.15528       -0.54372
H          1.57687       -3.67212       -2.23805
H          0.39228       -0.85417       -1.92440
H          0.00563       -1.98692       -3.24807
H         -1.28657       -1.30985       -2.20353
N         -0.69271       -1.71151        1.24883
C         -2.05024       -2.17212        1.60246
C          0.34990       -2.11437        2.21318
H         -0.44956       -2.09423        0.27869
H         -2.31759       -1.78822        2.58881
H         -2.74248       -1.78186        0.85598
H         -2.06679       -3.26428        1.61655
H          0.12743       -1.68350        3.19127
H          0.36610       -3.20387        2.28896
H          1.30839       -1.74358        1.85242
