42
2msa2eda_148.log	Energy: -1072761.8977789
S          3.13991        0.39472       -0.20687
O          2.78451        1.59127       -0.97704
O          3.28979       -0.84851       -1.02409
O          2.21362        0.14015        0.94459
C          4.74768        0.68620        0.51144
H          5.45809        0.83195       -0.30270
H          4.68635        1.58167        1.13030
H          5.02388       -0.17994        1.11288
S         -2.71306       -0.46313       -0.33186
O         -2.20150       -0.42182        1.06804
O         -3.06565       -1.80793       -0.80442
O         -1.77303        0.26252       -1.24767
C         -4.21672        0.50336       -0.32592
H         -4.93905        0.00115        0.31824
H         -3.98110        1.49344        0.06662
H         -4.59118        0.56430       -1.34814
H         -0.13712       -1.81314       -0.88298
H          0.37284       -3.34653       -1.60705
H         -1.67168       -3.55240       -0.10504
H         -0.31827       -4.58085        0.43235
H         -1.15450       -2.03259        1.60478
H         -0.89355       -3.46762        2.35906
H          2.22227       -1.94819       -0.50300
H          1.37972       -2.28996        0.93371
C          0.24925       -2.81162       -0.66454
C         -0.66155       -3.54456        0.31764
N          1.57919       -2.63711       -0.01925
N         -0.56337       -2.86882        1.61189
H          2.06317       -3.52846        0.07475
H          0.63623        3.43412        0.95595
H          0.84838        2.89742       -0.71452
H         -0.90483        4.64966       -0.62888
H         -1.62829        3.09864       -1.07763
H         -1.79713        4.33342        1.57594
H         -3.01498        3.84183        0.60569
H          0.71403        1.02548        0.78179
H         -0.83556        1.50624        1.27609
C          0.14185        2.93720        0.11550
C         -1.15174        3.64518       -0.25736
N         -0.14944        1.54343        0.51664
N         -2.06332        3.63809        0.88635
H         -0.62335        1.02573       -0.26370
