29
2msa1a1ma_62.log	Energy: -929303.2000358
S          1.19099        1.29653        0.09693
O          0.82212        0.28044       -0.95000
O          2.64764        1.46496        0.19344
O          0.53759        0.94630        1.39744
H          0.72899       -0.76228        1.64163
C          0.46594        2.83148       -0.42814
H          0.93371        3.11223       -1.37184
H         -0.60410        2.66215       -0.56125
H          0.66145        3.58004        0.33979
S         -2.58505       -0.34888       -0.27584
O         -3.66709       -1.25490       -0.59945
O         -2.48362        0.95270       -0.91857
O         -1.21600       -1.13937       -0.52629
H         -0.46105       -0.48862       -0.77588
C         -2.55848       -0.09752        1.48857
H         -3.45994        0.46203        1.74217
H         -2.57538       -1.07293        1.97633
H         -1.65892        0.46997        1.73647
N          0.89892       -1.76874        1.40370
H          0.15087       -2.03106        0.75411
H          0.87850       -2.35917        2.22964
H          1.88848       -1.78423        0.90440
N          3.27486       -1.51953        0.14021
H          3.35388       -0.49785        0.17079
C          3.18720       -1.95647       -1.26345
H          4.08287       -1.70426       -1.84094
H          3.03757       -3.03889       -1.30412
H          2.32843       -1.46062       -1.71923
H          4.10995       -1.89705        0.57871
