42
2msa2eda_257.log	Energy: -1072757.8026458
S          1.95249        1.86153        0.08439
O          2.16013        1.27528        1.41197
O          0.84595        2.84859        0.01328
O          1.78489        0.80652       -0.98818
C          3.43226        2.74578       -0.37120
H          3.59166        3.53003        0.36921
H          4.26260        2.03938       -0.36888
H          3.28754        3.17340       -1.36318
S          0.89332       -2.46468       -0.26701
O          0.00502       -2.51026       -1.42638
O          0.28000       -2.06872        1.00314
O          2.17060       -1.61760       -0.56156
H          1.99747       -0.59293       -0.68936
C          1.65515       -4.05637       -0.06035
H          2.15755       -4.31891       -0.99087
H          2.36210       -3.99536        0.76642
H          0.85659       -4.76481        0.16137
H         -0.10272        0.15065        2.07207
H         -0.83860        1.41931        3.05791
H         -1.83932       -0.78475        3.52977
H         -3.04671        0.35714        2.92499
H         -1.71285       -1.60650        1.19560
H         -3.22430       -1.77581        1.80816
H         -0.61385        2.17300        0.81705
H         -1.29581        0.81965        0.13311
C         -1.02726        0.70283        2.25523
C         -2.16572       -0.23179        2.63690
N         -1.33088        1.44857        1.01153
N         -2.53484       -1.09246        1.51391
H         -2.27105        1.85229        0.98909
H         -3.77298       -0.29408       -2.22005
H         -4.22495        1.39282       -2.47271
H         -1.98304        0.97118       -3.30858
H         -1.95088        2.14521       -1.98392
H         -1.26361       -0.70692       -1.63882
H         -0.21881        0.54583       -1.65820
H         -4.87210        0.96907       -0.32243
H         -3.52277        0.12956        0.07991
C         -3.57283        0.73742       -1.88605
C         -2.12882        1.09102       -2.22546
N         -3.86839        0.92846       -0.46225
N         -1.18355        0.28944       -1.44582
