42
2msa2eda_80.log	Energy: -1072767.3061951
S         -1.67283       -0.78679        1.34587
O         -2.31975       -0.93591        0.02127
O         -1.50468        0.64055        1.73827
O         -0.40909       -1.56487        1.46359
C         -2.78500       -1.48365        2.55329
H         -3.72947       -0.94237        2.49767
H         -2.93015       -2.53755        2.31529
H         -2.33089       -1.36978        3.53759
S          2.97206        0.85523        0.21734
O          3.92457        1.95009        0.07008
O          3.52716       -0.51465        0.02554
O          1.73472        1.00657       -0.63821
C          2.35505        0.89254        1.89908
H          3.19237        0.69485        2.56916
H          1.94609        1.88509        2.09537
H          1.57809        0.13275        2.00980
H         -0.83181        2.26729       -2.34723
H         -1.26137        0.73295       -1.55601
H         -3.32530        1.97194       -2.21573
H         -3.19640        1.77615       -0.46607
H         -2.72225        4.25463       -1.95482
H         -3.61847        4.01997       -0.60716
H          0.45934        1.94783       -0.37500
H         -0.68489        3.23131       -0.12872
C         -1.31688        1.81962       -1.47546
C         -2.75830        2.28542       -1.32941
N         -0.55388        2.22842       -0.27302
N         -2.77639        3.72966       -1.08861
H         -0.92136        1.71124        0.56047
H          1.64219       -3.08575       -2.32262
H          1.46080       -3.86473       -0.73281
H         -0.55768       -4.20445       -2.23796
H         -0.93528       -3.42048       -0.70242
H         -1.35577       -2.34264       -3.25792
H         -1.68379       -1.67374       -1.77637
H          2.24611       -1.51362       -0.50474
H          0.91765       -1.03214       -1.35515
C          1.06823       -3.08781       -1.39280
C         -0.42517       -3.28239       -1.66234
N          1.25981       -1.77810       -0.74160
N         -0.97057       -2.11504       -2.35162
H          0.69099       -1.70503        0.12955
