35
2msa1a1tma_68.log	Energy: -978619.0068239
S         -2.33732       -1.39390        0.00144
O         -3.07911       -2.56185        0.42080
O         -1.03867       -1.29876        0.88501
O         -3.02978       -0.09042        0.03158
H         -2.73202        1.42458        0.68844
C         -1.71172       -1.62363       -1.64370
H         -1.16522       -2.56701       -1.65811
H         -2.57236       -1.66624       -2.31238
H         -1.06001       -0.77850       -1.88128
S          0.41309        1.73380       -0.38000
O         -0.36966        3.00889       -0.42556
O          0.28948        0.90201       -1.58076
O          0.03967        0.98791        0.88244
H         -0.58926       -0.37693        0.83419
C          2.11952        2.17985       -0.19194
H          2.40874        2.75199       -1.07421
H          2.21913        2.78205        0.71128
H          2.68295        1.24099       -0.11731
N         -2.46453        2.36652        1.05721
H         -3.27384        2.97774        1.11710
H         -1.70194        2.75523        0.41613
H         -2.04171        2.23428        1.97389
N          3.20388       -0.92203        0.18906
C          4.59795       -1.21241       -0.09289
H          4.81003       -1.01917       -1.14884
H          5.24283       -0.56642        0.51099
H          4.86284       -2.26527        0.12460
C          2.89634       -1.10236        1.59817
H          3.54375       -0.45954        2.20321
H          1.85843       -0.81552        1.78565
H          3.03927       -2.14789        1.93073
C          2.32075       -1.71917       -0.64717
H          1.28053       -1.46990       -0.42773
H          2.50556       -1.49530       -1.70153
H          2.46217       -2.80499       -0.48469
