42
2msa2eda_346.log	Energy: -1072755.6342805
S          2.40050       -0.66328       -0.65521
O          2.68126       -1.59967        0.45618
O          2.43318        0.76231       -0.26685
O          1.11485       -1.03149       -1.34438
H          0.09629       -0.02844       -1.81445
C          3.68071       -0.89955       -1.87235
H          4.63813       -0.67943       -1.39981
H          3.64314       -1.93578       -2.20830
H          3.49148       -0.21588       -2.70015
S         -1.88073        0.68903       -1.22184
O         -3.01178       -0.00987       -1.82135
O         -0.62515        0.61211       -2.16403
O         -1.50501        0.27386        0.13257
H          0.07052       -0.88588        1.71602
C         -2.18182        2.43474       -1.22257
H         -2.29316        2.76096       -2.25692
H         -3.10818        2.59604       -0.66940
H         -1.32628        2.90866       -0.72524
H         -0.65159       -3.77195        1.81763
H         -0.91891       -2.52769        3.05876
H         -3.06545       -3.12892        1.91625
H         -2.62550       -1.44721        1.58453
H         -2.59962       -3.62451       -0.31927
H         -2.80571       -2.00316       -0.57179
H          0.98368       -2.18679        1.26029
H         -0.28317       -1.75437        0.31081
C         -0.95308       -2.73500        1.98641
C         -2.34426       -2.48643        1.39513
N          0.01111       -1.85382        1.29483
N         -2.29334       -2.70112       -0.04292
H          1.47862        3.33954        2.45643
H         -0.14004        4.03383        2.27006
H         -0.38145        1.98955        3.49785
H         -1.04468        1.72210        1.87816
H          1.27323        0.78850        1.40967
H          1.43780        0.68943        3.01314
H          1.03145        4.10809        0.19404
H          1.19662        2.49134        0.14179
C          0.50465        3.20468        1.95495
C         -0.12235        1.89762        2.43771
N          0.60001        3.23995        0.49356
N          0.73714        0.71438        2.27737
