29
2msa1a1ma_126.log	Energy: -929295.0145387
S          2.68533       -0.40140       -0.24453
O          2.81515        0.99438       -0.70766
O          1.90870       -1.28903       -1.09629
O          2.16168       -0.42107        1.22727
H          1.21531        0.03871        1.29042
C          4.31524       -1.05773       -0.00775
H          4.86668       -0.39182        0.65492
H          4.21653       -2.05324        0.42427
H          4.78290       -1.10738       -0.99130
S         -1.33834        0.29100        0.72934
O         -2.44993        0.54041        1.63491
O         -0.00554        0.76896        1.27715
O         -1.50567        0.90094       -0.63792
H         -0.34072        1.87267       -0.91547
C         -1.18558       -1.46081        0.47017
H         -1.06258       -1.93159        1.44638
H         -2.11025       -1.78282       -0.01986
H         -0.32163       -1.64585       -0.17101
N          0.51165        2.53729       -0.91502
H          1.38454        1.96935       -0.93460
H          0.48633        3.03266       -0.02528
H          0.48630        3.19371       -1.68999
N         -3.91840       -1.02284       -1.35946
H         -3.30160       -0.23644       -1.54616
C         -5.00657       -0.61854       -0.46998
H         -5.68236        0.14227       -0.88949
H         -5.60538       -1.49594       -0.20622
H         -4.57580       -0.21738        0.45095
H         -4.27641       -1.35587       -2.24744
