37
2msa1ma1eda_301.log	Energy: -1013357.6562350
S          0.87534        2.07602       -0.30401
O          1.75172        2.11144        0.87233
O         -0.57431        1.87786        0.03951
O          1.30893        1.09848       -1.34437
C          0.94228        3.67925       -1.07647
H          1.97816        3.86569       -1.36023
H          0.29520        3.66927       -1.95339
H          0.60415        4.41730       -0.34915
S         -2.83494       -0.62577        0.22354
O         -3.53069       -1.64823        0.97455
O         -2.42960       -0.92778       -1.15650
O         -1.55603       -0.21228        1.05443
H         -1.10491        0.62956        0.66941
C         -3.79665        0.87017        0.18299
H         -4.68841        0.66438       -0.40976
H         -4.06221        1.12496        1.20883
H         -3.19091        1.65373       -0.27468
N          2.95520       -0.48531        1.88487
H          3.85588       -0.39744        2.34444
C          1.89833       -0.67551        2.88359
H          1.83706        0.13024        3.62620
H          0.93113       -0.73399        2.37714
H          2.05161       -1.62359        3.40829
H          2.78646        0.39814        1.40319
H          0.77076       -3.20840       -2.18542
H          1.33391       -1.73293       -3.01649
H          3.22027       -3.02530       -1.84185
H          3.04475       -1.35249       -1.30140
H          2.58412       -3.69437        0.27379
H          2.71357       -2.08658        0.75107
H         -0.66797       -1.43815       -1.42100
H          0.46950       -1.78693       -0.23359
C          1.22857       -2.22570       -2.04823
C          2.56395       -2.33717       -1.29848
N          0.33586       -1.41702       -1.18914
N          2.30358       -2.74420        0.07479
H          0.65011       -0.41352       -1.20157
