42
2msa2eda_03.log	Energy: -1072771.5086386
S          2.58614        1.42637        0.02466
O          3.46189        0.35268        0.51569
O          1.88735        2.19471        1.09378
O          1.60322        0.94586       -1.00096
C          3.62583        2.60882       -0.81677
H          4.34459        2.99629       -0.09431
H          4.13817        2.09459       -1.63019
H          2.99699        3.41104       -1.20317
S         -2.36743       -1.32513       -0.20792
O         -1.54021       -2.29652       -0.97665
O         -3.01160       -0.28966       -1.02913
O         -1.59223       -0.75047        0.93997
C         -3.66903       -2.29658        0.53439
H         -4.24553       -2.75487       -0.26952
H         -3.21494       -3.05967        1.16660
H         -4.29707       -1.63053        1.12641
H         -0.52596        3.35702       -0.60774
H         -0.92192        1.75281       -1.24727
H         -2.87525        3.33486       -1.43970
H         -3.22596        1.92709       -0.43337
H         -2.70031        4.64824        0.53983
H         -3.92469        3.63699        0.93102
H          0.20535        1.94661        1.02075
H         -1.33359        2.42944        1.55373
C         -1.16423        2.47920       -0.47260
C         -2.64200        2.84985       -0.48327
N         -0.82499        1.88846        0.84579
N         -2.94180        3.67457        0.69098
H         -1.13274        0.88917        0.89735
H          2.29823       -1.61672        0.96093
H          0.53708       -1.70287        1.23206
H          1.63980       -3.88569        1.81137
H          0.49351       -4.05548        0.47270
H          3.41094       -3.93947        0.19014
H          2.38519       -5.10212       -0.33877
H          1.32964       -0.73199       -0.93784
H          1.75394       -2.32915       -1.34126
C          1.37007       -2.10415        0.65197
C          1.45545       -3.61982        0.76200
N          1.13402       -1.74660       -0.77068
N          2.47617       -4.10816       -0.16764
H          0.13759       -1.94999       -1.01239
