35
2msa1a1tma_13.log	Energy: -978628.8181415
S         -0.08440        2.18661        0.00201
O          0.79382        2.18135       -1.20060
O          0.37298        1.23964        1.04231
O         -1.52406        2.00535       -0.34383
H         -2.33948        0.70914       -0.50453
C          0.02982        3.83077        0.67751
H          1.07399        4.02068        0.92636
H         -0.32208        4.53383       -0.07726
H         -0.59579        3.87473        1.56910
S         -2.30615       -1.41850       -0.02165
O         -3.30764       -2.45967       -0.08769
O         -2.95949       -0.09584       -0.56402
O         -1.02741       -1.65629       -0.71008
H          0.26698       -0.86505       -1.58055
C         -1.92595       -1.03847        1.67400
H         -2.85889       -0.78361        2.17670
H         -1.48803       -1.93754        2.11001
H         -1.21397       -0.20818        1.69153
N          1.15657       -0.42883       -1.88207
H          1.92378       -0.77666       -1.21384
H          1.05974        0.60823       -1.75771
H          1.35476       -0.66451       -2.84934
N          2.92414       -1.22275        0.08282
C          3.92598       -2.23088       -0.24649
H          3.43545       -3.12552       -0.64062
H          4.60831       -1.84243       -1.00827
H          4.52079       -2.52132        0.63528
C          3.54493        0.01559        0.55734
H          4.21660        0.40793       -0.21186
H          2.76366        0.75234        0.75968
H          4.12626       -0.15217        1.47849
C          1.96341       -1.72870        1.06713
H          1.21955       -0.95337        1.26387
H          1.45599       -2.60980        0.66492
H          2.46158       -2.00171        2.01137
