40
2msa1dma1eda_353.log	Energy: -1038018.7950522
S         -3.12725       -0.26164        0.51815
O         -3.98532       -0.81525        1.54976
O         -2.76126       -1.09912       -0.62087
O         -1.78950        0.30238        1.17587
H         -0.99815       -0.29365        0.97145
C         -3.83434        1.25728       -0.07325
H         -3.13984        1.70422       -0.79151
H         -4.78277        0.99686       -0.54500
H         -4.00465        1.90678        0.78581
S          0.86031       -1.52525       -0.58724
O          0.66348       -0.52555       -1.65588
O          0.36558       -1.03998        0.74457
O          2.28059       -1.96905       -0.46137
H          3.13017       -0.71277        0.21449
C         -0.09952       -2.96037       -1.00245
H         -1.14282       -2.64389       -1.05788
H          0.25662       -3.33336       -1.96292
H          0.04559       -3.70255       -0.21732
N          3.50233        0.17455        0.64687
C          4.94910        0.29386        0.39650
C          3.11911        0.19065        2.07435
H          2.98585        0.95717        0.13383
H          5.47052       -0.54632        0.85829
H          5.12198        0.27953       -0.68011
H          5.31923        1.23137        0.81638
H          3.66666       -0.59043        2.60507
H          3.35320        1.16656        2.50419
H          2.04900       -0.01245        2.13663
H         -0.24719        3.91576       -0.89847
H         -1.19833        3.03517        0.29311
H          1.18419        3.08043        0.92035
H          0.55234        1.44501        0.71382
H          1.57825        1.32894       -1.40572
H          2.24109        2.83217       -1.24354
H         -0.54738        2.28509       -2.45204
H         -0.86516        1.10066       -1.38958
C         -0.44360        2.91455       -0.49482
C          0.81909        2.36063        0.17807
N         -0.99866        2.09502       -1.56512
N          1.92421        2.01516       -0.72904
