41
2msa1dma1tma_64.log	Energy: -1027941.7744176
S          0.58717        1.62629        0.45780
O         -0.04401        1.01147       -0.76428
O          1.78557        2.40118        0.12802
O          0.80948        0.57368        1.49342
C         -0.62713        2.73555        1.14174
H         -0.83673        3.50511        0.39801
H         -1.52394        2.15924        1.37838
H         -0.19947        3.17901        2.04120
S         -3.14479       -0.19263       -0.30347
O         -3.09197        0.30720        1.06551
O         -2.61909       -1.53844       -0.53868
O         -2.47830        0.83112       -1.29180
H         -1.46778        0.93687       -1.07692
C         -4.81673       -0.11901       -0.89907
H         -5.40038       -0.80594       -0.28557
H         -5.17880        0.90223       -0.78449
H         -4.82623       -0.42758       -1.94395
N          3.55049        0.04969       -0.81875
C          4.14757       -0.16816       -2.12595
C          4.54039        0.30494        0.21769
H          2.92639        0.85304       -0.85184
H          4.72413       -1.10125       -2.12002
H          3.36101       -0.26264       -2.88035
H          4.82776        0.64257       -2.43854
H          5.14029       -0.59803        0.39151
H          5.23384        1.12387       -0.03514
H          4.02644        0.56685        1.14613
N          0.84982       -1.94564        0.63070
C         -0.20586       -2.64659        1.40022
H         -0.06701       -2.42714        2.45941
H         -1.17907       -2.28816        1.06368
H         -0.11877       -3.72159        1.22399
C          0.66676       -2.09324       -0.83608
H         -0.34429       -1.78034       -1.09370
H          1.40355       -1.45758       -1.32753
H          0.81987       -3.14311       -1.09982
C          2.21626       -2.34637        1.04408
H          2.91664       -1.75716        0.44645
H          2.34189       -2.12253        2.10419
H          2.34456       -3.41713        0.86651
H          0.77478       -0.91802        0.87218
