44
2msa2tma_07.log	Energy: -1052605.1435164
S          1.59765        0.05312       -0.11032
O          0.88052        1.25791       -0.56490
O          2.17974        0.16210        1.24893
O          2.67629       -0.36287       -1.09538
H          3.98308       -0.29037       -0.47052
C          0.43351       -1.28802       -0.09546
H         -0.37060       -1.04230        0.60053
H          0.01142       -1.41048       -1.09285
H          0.95604       -2.19313        0.21493
S         -3.40701       -1.33477       -0.07409
O         -2.56540       -2.22777       -0.87745
O         -4.32073       -0.45876       -0.84157
O         -2.60449       -0.51696        0.91602
H         -2.48535        0.96794        0.43234
C         -4.43791       -2.37576        0.95208
H         -5.05265       -2.98968        0.29300
H         -3.78995       -3.00322        1.56458
H         -5.06349       -1.73936        1.57835
N          4.98026       -0.24469        0.00060
C          5.11467        1.11242        0.57789
H          5.02140        1.84463       -0.22538
H          4.29997        1.25530        1.28873
H          6.08900        1.21008        1.06498
C          4.99452       -1.28593        1.05286
H          4.17000       -1.07866        1.73607
H          4.84076       -2.25868        0.58360
H          5.95542       -1.27006        1.57481
C          5.97669       -0.50189       -1.05780
H          5.78559       -1.48266       -1.49491
H          5.87405        0.25965       -1.83170
H          6.98456       -0.47136       -0.63479
N         -2.50277        1.98336        0.09056
C         -2.14906        1.95086       -1.35266
H         -1.13236        1.56593       -1.44557
H         -2.85977        1.29281       -1.85464
H         -2.20729        2.96601       -1.75482
C         -3.89065        2.45531        0.30042
H         -4.55850        1.77386       -0.22826
H         -4.11101        2.42837        1.36862
H         -3.98557        3.47710       -0.07639
C         -1.51810        2.74996        0.88922
H         -1.76483        2.63785        1.94618
H         -0.52241        2.35098        0.68690
H         -1.56960        3.80424        0.60399
