38
2msa2dma_232.log	Energy: -1003271.4088895
S          1.45385       -1.76927       -0.24660
O          1.21282       -0.65319       -1.16640
O          1.05972       -3.09724       -0.68736
O          0.79530       -1.43643        1.15315
H         -0.07565       -0.91438        1.04322
C          3.16365       -1.77638        0.22463
H          3.72965       -2.05645       -0.66506
H          3.42915       -0.76933        0.56569
H          3.29435       -2.52188        1.00924
S         -2.62462       -0.50574        0.29654
O         -3.58435       -0.88590        1.32201
O         -1.29461       -0.03231        0.82955
O         -3.12782        0.53514       -0.66794
H         -2.24532        1.74817       -0.75981
C         -2.25668       -1.93958       -0.69701
H         -3.18659       -2.27256       -1.15844
H         -1.52007       -1.66411       -1.45235
H         -1.85519       -2.71628       -0.04480
N         -1.54979        2.58144       -0.81684
C         -0.33478        2.10084       -1.52012
C         -1.29311        3.06907        0.55964
H         -2.00136        3.31371       -1.36215
H          0.02942        1.20601       -1.01358
H         -0.60208        1.84003       -2.54441
H          0.42840        2.88160       -1.51477
H         -0.92136        2.22485        1.14004
H         -0.56245        3.87960        0.53226
H         -2.23292        3.41615        0.98987
N          3.43417        1.53404        0.75484
C          2.16079        1.83079        1.39089
C          3.45073        1.87954       -0.65868
H          4.18232        2.01708        1.23912
H          1.38604        1.18671        0.96524
H          2.21772        1.61357        2.46018
H          1.84552        2.88310        1.26163
H          2.74108        1.23723       -1.18972
H          3.18284        2.93455       -0.85305
H          4.44601        1.69826       -1.07348
