32
2msa1a1dma_120.log	Energy: -953956.8306018
S          3.00836       -0.51144       -0.20404
O          4.19197       -1.20646       -0.65657
O          2.32266       -1.03197        0.99611
O          1.98466       -0.47167       -1.39837
H          1.04656       -0.20089       -1.10207
C          3.37768        1.19752        0.10279
H          4.06514        1.22935        0.94879
H          3.84980        1.59771       -0.79454
H          2.44128        1.71771        0.32208
S         -0.76091        1.28110        0.17169
O         -0.38856        0.05221       -0.62531
O          0.31417        2.27512        0.20916
O         -1.25153        0.84395        1.51765
H         -0.68553       -0.63716        1.77422
C         -2.15890        1.99592       -0.66034
H         -1.82730        2.30024       -1.65376
H         -2.95909        1.25066       -0.72292
H         -2.47416        2.86469       -0.08130
N         -0.23803       -1.60059        1.67803
H          0.76483       -1.44531        1.41729
H         -0.69866       -2.06512        0.89771
H         -0.31405       -2.15453        2.52624
N         -4.26719       -0.68668       -0.69210
C         -4.20232       -0.92866        0.74073
C         -3.34616       -1.51789       -1.45365
H         -5.21423       -0.83173       -1.02264
H         -3.24776       -0.55761        1.13010
H         -4.99426       -0.36971        1.24609
H         -4.30596       -1.99619        1.00898
H         -2.31558       -1.22687       -1.22258
H         -3.46365       -2.59800       -1.25094
H         -3.49867       -1.35166       -2.52317
