38
2msa1ma1tma_05.log	Energy: -1003297.2401159
S          2.67405       -0.54318       -0.27577
O          2.51372       -2.02238       -0.32092
O          2.72185        0.00664        1.09838
O          1.66036        0.15338       -1.11755
C          4.26288       -0.22206       -1.02384
H          5.02468       -0.72661       -0.42928
H          4.24598       -0.61299       -2.04121
H          4.43110        0.85554       -1.02749
S         -2.83536       -0.32123       -0.16641
O         -3.22970        0.82737        0.66953
O         -3.00499       -1.65258        0.44705
O         -1.43123       -0.14895       -0.69366
C         -3.88492       -0.28559       -1.61294
H         -3.76195        0.67908       -2.10615
H         -3.58859       -1.09692       -2.27803
H         -4.91554       -0.41697       -1.28183
N         -0.13225       -2.35143        0.17209
H         -0.72575       -3.12671       -0.11351
H          0.84298       -2.44328       -0.18663
C         -0.09840       -2.22299        1.64808
H          0.59321       -1.41738        1.89695
H         -1.10726       -2.00402        1.99679
H          0.27084       -3.15139        2.08404
H         -0.55537       -1.48209       -0.25166
N          0.24596        2.12335        0.24518
C          1.52399        2.87760        0.18694
H          2.29953        2.26921        0.65260
H          1.77097        3.06033       -0.85881
H          1.39696        3.82312        0.71874
C         -0.86403        2.88171       -0.38627
H         -0.64626        2.99650       -1.44843
H         -1.79235        2.33024       -0.24164
H         -0.92842        3.86127        0.09333
C         -0.08098        1.72900        1.64189
H         -1.02985        1.19241        1.63370
H          0.73452        1.10302        2.00712
H         -0.17084        2.63540        2.24518
H          0.40513        1.24547       -0.29555
