37
2msa1ma1eda_317.log	Energy: -1013360.4878715
S          2.51964        0.40802       -0.32280
O          1.72309        1.33522       -1.14373
O          2.46759       -1.00868       -0.80783
O          2.20689        0.47778        1.13571
H          1.42640       -1.22568        1.74868
C          4.22496        0.90972       -0.49292
H          4.49193        0.84210       -1.54772
H          4.31171        1.93748       -0.13942
H          4.84520        0.24300        0.10629
S         -2.08128       -1.04384       -0.72905
O         -2.70567       -2.34542       -0.93311
O         -1.42188       -0.92767        0.64551
O         -2.96288        0.14356       -0.92315
H         -3.03013        1.28422        0.51019
C         -0.75526       -0.86350       -1.90571
H         -0.07512       -1.71069       -1.81282
H         -1.20878       -0.85329       -2.89751
H         -0.20923        0.06245       -1.71034
N          0.99940       -1.99907        1.21757
H          0.01908       -1.69385        1.00373
C          1.06804       -3.31614        1.87198
H          0.61085       -4.06075        1.22058
H          2.11028       -3.57853        2.05414
H          0.52553       -3.28431        2.81698
H          1.54076       -1.93020        0.32334
H         -0.03292        1.57333        0.73697
H          0.08817        3.31225        0.89957
H         -1.33478        2.48100        2.66690
H         -2.33944        3.43138        1.53173
H         -2.07514        0.44884        1.47201
H         -3.37173        1.30487        2.14809
H         -0.30822        2.87269       -1.33092
H         -1.61585        1.95235       -1.06913
C         -0.60147        2.50708        0.63154
C         -1.72937        2.53323        1.64940
N         -1.10553        2.75829       -0.71242
N         -2.61970        1.34702        1.46416
