30
2msa1eda_100.log	Energy: -953195.1821359
S         -1.01276        1.85976        0.04432
O         -1.96688        2.71988        0.74269
O         -1.63480        1.04336       -1.05940
O         -0.21294        0.96343        0.92922
C          0.16712        2.92069       -0.77827
H         -0.37702        3.54222       -1.48997
H          0.64413        3.54356       -0.02031
H          0.90059        2.29334       -1.28642
S          2.56277       -0.67093       -0.07439
O          1.62176       -1.77656        0.05623
O          2.45657        0.22717       -1.21091
O          4.04825       -1.32972       -0.12715
H          4.43514       -1.12031       -0.98978
C          2.65552        0.21298        1.45366
H          1.66895        0.67441        1.57885
H          2.87390       -0.50569        2.24357
H          3.44457        0.95908        1.36336
H         -1.70528       -2.66195        1.15682
H         -1.56559       -0.90576        1.45705
H         -3.97518       -1.61731        1.41891
H         -3.59112       -0.48804        0.11391
H         -4.05880       -3.35858       -0.17677
H         -4.61513       -2.11966       -1.08820
H         -0.18981       -1.65715       -0.39559
H         -1.60758       -2.10989       -1.20931
C         -1.93161       -1.66590        0.76470
C         -3.41923       -1.50466        0.47984
N         -1.19645       -1.48624       -0.51093
N         -3.81545       -2.45369       -0.56455
H         -1.32510       -0.46906       -0.83157
