42
2msa2eda_406.log	Energy: -1072751.1989244
S         -2.16839       -1.60709        0.23084
O         -2.97317       -0.67044       -0.60333
O         -1.58577       -0.96630        1.42779
O         -1.15604       -2.34755       -0.57753
C         -3.31986       -2.84275        0.79724
H         -4.08295       -2.34128        1.39255
H         -3.76318       -3.32149       -0.07570
H         -2.76963       -3.56481        1.40055
S         -1.17662        2.34343       -0.36317
O         -1.01415        3.71754       -0.78773
O         -0.14671        1.36604       -0.72979
O         -2.57371        1.84631       -0.89470
H         -2.69229        0.84414       -0.77966
C         -1.36009        2.27617        1.40406
H         -0.43408        2.65758        1.83651
H         -2.20198        2.91161        1.67916
H         -1.52608        1.23236        1.68332
H          2.17151       -1.75982       -0.39030
H          1.98793       -2.76461       -1.85163
H          4.18788       -1.58284       -1.86337
H          3.17829       -1.04900       -3.20905
H          3.66335        0.41984       -0.72573
H          3.82649        0.95582       -2.28451
H          0.01201       -1.47944       -1.30545
H          0.88766       -0.03828       -1.43808
C          2.09244       -1.74186       -1.48223
C          3.27561       -1.02037       -2.11620
N          0.83409       -1.01206       -1.77568
N          3.27822        0.36422       -1.67288
H          0.64445       -0.96317       -2.77563
H          3.54041        0.18540        3.22106
H          3.73318        1.60159        2.17895
H          1.37003        1.10137        2.56773
H          1.76798        0.95767        0.85035
H          1.51643       -1.31928        2.67946
H          0.47682       -0.91753        1.50540
H          5.18122       -0.19415        1.47621
H          3.88350       -1.16031        1.21978
C          3.40489        0.55709        2.19115
C          1.92549        0.49834        1.83148
N          4.20057       -0.19458        1.21686
N          1.46520       -0.88862        1.75949
