38
2msa2dma_38.log	Energy: -1003289.1898911
S          0.84030        2.16255        0.21195
O          2.12408        2.82349        0.06535
O          0.70519        1.11321        1.22190
O          0.48622        1.55000       -1.20896
C         -0.44149        3.36198        0.47134
H         -0.25272        3.82613        1.44015
H         -0.38010        4.09817       -0.32998
H         -1.39670        2.83064        0.46279
S         -2.35084       -0.25819       -0.17638
O         -2.74074        1.13591        0.05965
O         -2.11548       -1.06817        1.04678
O         -1.16958       -0.37666       -1.10956
H         -0.23771        0.82441       -1.15332
C         -3.69879       -1.04841       -1.03746
H         -3.87599       -0.50430       -1.96521
H         -3.42411       -2.08344       -1.24147
H         -4.57627       -1.00432       -0.39169
N          0.53779       -1.78103        1.15138
C          0.24133       -3.17273        0.76523
C          1.25050       -1.64791        2.43587
H          1.12186       -1.35054        0.37168
H         -0.37960       -3.64161        1.52989
H         -0.29981       -3.15413       -0.18075
H          1.17754       -3.72345        0.65044
H          0.64177       -2.07479        3.23504
H          2.20350       -2.17799        2.37375
H          1.42137       -0.58805        2.61778
H         -0.37186       -1.27543        1.18857
N          2.18128       -1.01287       -0.98466
C          1.80072       -1.83880       -2.12849
C          3.59841       -1.10458       -0.64697
H          1.95171       -0.04608       -1.20236
H          1.97177       -2.89498       -1.89199
H          0.73660       -1.69248       -2.33046
H          2.37452       -1.59894       -3.03589
H          3.82631       -2.11750       -0.29581
H          4.25641       -0.88540       -1.50079
H          3.82498       -0.39786        0.15501
