43
2msa1eda1tma_35.log	Energy: -1062692.4691680
S         -0.88452       -1.86848       -0.78511
O         -2.33826       -2.04039       -0.64477
O         -0.08182       -3.09741       -0.91036
O         -0.33834       -1.00600        0.34610
H          1.27476       -1.17491        0.59111
C         -0.59390       -0.89487       -2.25180
H          0.48147       -0.74567       -2.35619
H         -1.00341       -1.43878       -3.10360
H         -1.06547        0.08038       -2.12466
S          1.08513        2.22697       -0.35648
O         -0.20331        2.13239       -1.07635
O          2.09212        1.22606       -0.77680
O          0.89513        2.25091        1.13021
H         -0.76852        1.74891        1.52195
C          1.77710        3.82304       -0.77174
H          1.92980        3.85471       -1.85095
H          1.07114        4.59382       -0.46169
H          2.72578        3.93669       -0.24664
H         -3.18110        2.49784        1.41383
H         -2.29715        2.37488       -0.13594
H         -4.64615        1.26222       -0.07325
H         -3.31933        0.27267       -0.68210
H         -4.92666       -0.34963        1.48388
H         -3.59547       -1.14689        0.93822
H         -1.94160        0.72616        2.25377
H         -1.21204        0.33076        0.83098
C         -2.72393        1.81216        0.69504
C         -3.71958        0.75559        0.21540
N         -1.59858        1.13517        1.38475
N         -3.94627       -0.24659        1.25849
N          2.23986       -1.54802        0.80842
C          2.01763       -2.83244        1.51699
H          1.49530       -2.63035        2.45269
H          1.39680       -3.46596        0.88178
H          2.98417       -3.29984        1.72003
C          2.92203       -1.75918       -0.49530
H          2.31907       -2.45676       -1.07836
H          2.98513       -0.79424       -0.99770
H          3.91682       -2.17217       -0.31001
C          2.94909       -0.55336        1.64932
H          3.01915        0.37702        1.08649
H          2.37011       -0.38456        2.55773
H          3.93757       -0.94614        1.90077
