32
2msa2ma_173.log	Energy: -953957.3956552
S         -2.72958        0.05202       -0.21571
O         -2.20394       -1.32836       -0.46908
O         -2.49891        0.98439       -1.33302
O         -2.22016        0.59548        1.07830
H         -0.91000        1.53544        0.61922
C         -4.48592       -0.16489       -0.03047
H         -4.66002       -0.83764        0.80910
H         -4.92955        0.81327        0.15515
H         -4.87012       -0.59393       -0.95600
S          1.20010       -1.14343        0.29783
O          1.35477       -0.39564        1.54169
O          1.10737       -0.29802       -0.91333
O         -0.00125       -2.12710        0.35228
H         -0.92116       -1.73403        0.01758
C          2.54897       -2.27421        0.10626
H          3.44957       -1.66761       -0.02894
H          2.59877       -2.88957        1.00447
H          2.35727       -2.88181       -0.77780
N         -0.18291        2.01835        0.02726
H          0.32664        1.25064       -0.45331
C          0.73043        2.86324        0.82200
H          1.46007        3.33678        0.16498
H          0.15394        3.62247        1.35011
H          1.23963        2.21669        1.53650
H         -0.71735        2.51846       -0.68422
N          4.15629        0.34706       -1.13742
H          4.85792        0.54898       -1.84043
C          4.10273        1.40147       -0.12919
H          3.84500        2.39861       -0.52092
H          3.36541        1.12918        0.63179
H          5.07262        1.47909        0.36983
H          3.25899        0.26005       -1.60622
