42
2msa2eda_260.log	Energy: -1072752.9877343
S          2.45786       -1.09646       -0.20186
O          1.85594       -1.41414        1.10082
O          2.70609        0.37626       -0.38522
O          1.71220       -1.67929       -1.34953
C          4.08623       -1.81928       -0.25866
H          4.67049       -1.39976        0.56035
H          3.97605       -2.89758       -0.14206
H          4.53667       -1.57757       -1.22115
S         -0.01529        2.49545       -0.16838
O         -1.02646        2.98539        0.75668
O         -0.39482        1.43447       -1.10488
O          1.23302        2.06699        0.66026
H          1.82953        1.32370        0.20702
C          0.57870        3.86806       -1.13254
H         -0.25753        4.24048       -1.72484
H          0.93783        4.63351       -0.44489
H          1.38211        3.50994       -1.77676
H         -1.35157       -1.56743       -2.98168
H         -1.56055       -3.04179       -2.02655
H         -3.76219       -2.15311       -2.74868
H         -3.60922       -2.13385       -0.98850
H         -3.34270        0.23848       -2.69445
H         -4.34698        0.00305       -1.41314
H          0.02830       -1.51277       -1.04528
H         -1.12966       -0.31959       -0.94530
C         -1.74828       -1.96558       -2.04327
C         -3.23867       -1.67070       -1.90913
N         -0.99634       -1.34223       -0.93752
N         -3.44542       -0.23543       -1.80459
H         -1.32957       -1.69995        0.00118
H         -1.39900       -1.86549        3.63915
H         -0.09147       -2.16520        2.46571
H         -0.08604        0.18656        3.20350
H         -0.36179        0.03089        1.48685
H         -2.36388        0.75184        3.47875
H         -2.01452        1.46239        2.04644
H         -2.31927       -3.04404        1.78819
H         -2.82079       -1.47514        1.68757
C         -1.04239       -1.64948        2.62040
C         -0.82134       -0.14986        2.46132
N         -2.01293       -2.09426        1.60441
N         -2.09797        0.56507        2.51750
