38
2msa2dma_179.log	Energy: -1003276.6686926
S         -0.76070        1.72279        0.01964
O         -1.96034        2.15612        0.76406
O         -1.05433        1.18360       -1.32614
O          0.08163        0.76369        0.81644
C          0.27251        3.16017       -0.21444
H         -0.27933        3.87459       -0.82594
H          0.49625        3.58827        0.76333
H          1.18181        2.83538       -0.72235
S          2.99347       -0.36599       -0.02554
O          2.13438       -1.53476        0.00417
O          2.87900        0.61833       -1.08754
O          4.52539       -0.92646       -0.07953
H          4.97019       -0.48953       -0.81964
C          2.98533        0.41413        1.56605
H          1.96569        0.78779        1.69900
H          3.24102       -0.33898        2.31127
H          3.71754        1.22107        1.55180
N         -0.89725       -1.62867       -0.13057
C         -0.66139       -1.92382       -1.55729
C         -0.71284       -2.77597        0.77257
H         -0.28334       -0.84122        0.17003
H         -1.39213       -2.66205       -1.89597
H         -0.77571       -0.98750       -2.10375
H          0.35198       -2.30781       -1.67988
H         -1.42675       -3.56057        0.51201
H          0.30765       -3.14946        0.68050
H         -0.89046       -2.44535        1.79695
H         -1.88577       -1.22899       -0.00153
N         -3.40326       -0.47628        0.24546
C         -4.28633       -1.10707        1.21893
C         -4.02616       -0.29726       -1.06502
H         -3.10983        0.44359        0.58697
H         -4.51017       -2.13343        0.90623
H         -3.79143       -1.14504        2.19305
H         -5.24182       -0.57385        1.33603
H         -4.21132       -1.27607       -1.52314
H         -4.98556        0.23750       -1.00345
H         -3.34186        0.27236       -1.69762
