28
2msa1dma_05.log	Energy: -918474.4642972
S         -2.00595       -0.75918        0.02144
O         -1.03998       -1.88664        0.22687
O         -1.94643       -0.17316       -1.32663
O         -1.88443        0.27533        1.09143
H         -0.88768        1.45917        0.50160
C         -3.60228       -1.51655        0.23823
H         -3.71595       -2.28354       -0.52792
H         -3.64194       -1.95530        1.23497
H         -4.35944       -0.74057        0.12452
S          2.15205       -0.51430       -0.00634
O          2.09016       -0.01204        1.36151
O          1.72775        0.44338       -1.04417
O          1.40499       -1.86634       -0.16919
H          0.36220       -1.81848       -0.00618
C          3.80455       -1.03918       -0.38278
H          4.43964       -0.15481       -0.32628
H          4.10316       -1.77893        0.35936
H          3.81258       -1.46190       -1.38679
N         -0.25600        2.13310       -0.00751
C          0.51128        2.93356        0.96889
C         -1.07342        2.91436       -0.95916
H          0.40716        1.52913       -0.52965
H         -0.18233        3.50238        1.58980
H          1.09723        2.24892        1.58316
H          1.17526        3.61415        0.43300
H         -1.77316        3.53508       -0.39725
H         -0.42124        3.54444       -1.56639
H         -1.61843        2.20668       -1.58461
