42
2msa2eda_368.log	Energy: -1072750.9596299
S         -0.26082        2.13391       -0.16618
O         -1.74687        2.28464       -0.11816
O          0.22098        1.40623       -1.35215
O          0.27576        1.55405        1.10278
C          0.35433        3.80375       -0.24680
H         -0.03665        4.26269       -1.15488
H          0.00928        4.33844        0.63799
H          1.44358        3.75912       -0.27574
S         -3.41799       -0.79578        0.14664
O         -3.53461       -0.51533        1.56687
O         -2.30741       -1.67616       -0.26009
O         -3.40946        0.50987       -0.71242
H         -2.68994        1.21074       -0.44012
C         -4.92009       -1.52167       -0.46174
H         -5.03797       -2.47936        0.04584
H         -5.74272       -0.84996       -0.21846
H         -4.82620       -1.66027       -1.53816
H          2.05235       -1.61962        1.34404
H          0.58682       -2.56509        1.71217
H          2.26856       -3.89161        0.37607
H          0.73448       -3.70194       -0.48505
H          3.18300       -2.15969       -0.99453
H          2.27281       -3.04033       -2.07335
H          0.35629       -0.17746        0.74487
H          0.81477       -0.89309       -0.68400
C          1.18352       -2.12378        0.91188
C          1.61586       -3.16084       -0.12313
N          0.38204       -1.08215        0.23221
N          2.23626       -2.46433       -1.24216
H         -0.59890       -1.36905        0.05726
H          5.71295        0.61806        0.16645
H          5.14156        0.13244       -1.43578
H          3.70975        1.87237       -0.47170
H          2.80363        0.38781       -0.74290
H          3.82344        1.25399        1.86878
H          2.26092        1.12430        1.40168
H          5.67569       -1.77954       -0.01383
H          4.47837       -1.32743        1.01205
C          4.90246        0.09400       -0.36790
C          3.59098        0.83335       -0.12719
N          4.77927       -1.30789        0.04068
N          3.19039        0.72425        1.27622
