40
2msa1dma1eda_463.log	Energy: -1038010.6702165
S          1.97806       -1.31370       -0.67894
O          3.16935       -0.67783       -1.24980
O          0.71416       -0.63996       -1.15941
O          1.97543       -1.39129        0.80805
H          1.16265        0.01814        1.33706
C          1.89901       -2.99153       -1.26947
H          1.84949       -2.96412       -2.35812
H          2.80083       -3.50492       -0.93555
H          1.00982       -3.45992       -0.84628
S         -2.19630       -1.03724        0.74235
O         -1.90782        0.28963        1.31927
O         -1.75399       -2.18921        1.50712
O         -1.68989       -1.09522       -0.73798
H         -0.66056       -0.95912       -0.85607
C         -3.94429       -1.12836        0.44889
H         -4.43153       -1.06426        1.42209
H         -4.23209       -0.29278       -0.18877
H         -4.15895       -2.08304       -0.03037
N         -2.16015        2.60712       -0.82635
C         -0.81064        2.65002       -1.36706
C         -3.11613        2.05930       -1.77457
H         -2.16689        2.03267        0.01082
H         -0.78895        3.31170       -2.24019
H         -0.12461        3.07993       -0.62898
H         -0.41651        1.66827       -1.68257
H         -3.18851        2.72093       -2.64496
H         -2.85181        1.05049       -2.13843
H         -4.10778        2.01947       -1.31205
H          1.28796        2.88885        2.11599
H          1.87945        1.51464        3.08639
H          3.72245        2.64226        1.71413
H          3.51984        0.92456        1.35758
H          3.07542        3.08635       -0.44202
H          3.09212        1.45586       -0.74986
H         -0.17489        0.97882        1.68012
H          0.80167        1.29410        0.36401
C          1.73656        1.89330        2.07240
C          3.04446        1.90680        1.26854
N          0.79907        1.00167        1.35425
N          2.74412        2.18408       -0.13061
