40
2msa1dma1eda_113.log	Energy: -1038023.3813934
S          2.29166       -0.61031       -0.48876
O          1.81880        0.30785       -1.54266
O          1.86076       -2.01330       -0.68879
O          1.92524       -0.11409        0.88578
C          4.07380       -0.61135       -0.52604
H          4.38837       -0.97517       -1.50441
H          4.41941        0.40957       -0.36288
H          4.42993       -1.27182        0.26452
S         -0.45504        2.43033        0.36280
O         -1.23364        3.46586        1.00927
O         -1.11468        1.14708        0.07474
O          0.81487        2.15729        1.25035
H          1.25855        1.25915        1.05079
C          0.21990        3.04723       -1.16022
H         -0.61874        3.23527       -1.83208
H          0.75005        3.97341       -0.93800
H          0.88868        2.28142       -1.55984
N         -0.58968       -1.61521        1.64409
C         -0.11661       -2.94563        2.01854
C         -1.66873       -1.11352        2.48893
H          0.20419       -0.97306        1.66783
H         -0.92045       -3.67608        1.87300
H          0.72559       -3.21271        1.37523
H          0.20483       -2.99872        3.06867
H         -2.54307       -1.76672        2.38937
H         -1.39183       -1.07882        3.55238
H         -1.94225       -0.10895        2.15914
H         -2.00777       -1.97231       -2.73640
H         -2.04067       -3.13776       -1.38804
H         -4.18263       -1.95062       -1.57449
H         -3.39783       -1.56732       -0.03983
H         -4.34592        0.31891       -1.55704
H         -2.86624        0.57696       -0.89961
H          0.02500       -1.86148       -1.34158
H         -0.81475       -0.44182       -1.25618
C         -2.06408       -2.07645       -1.65045
C         -3.33646       -1.41806       -1.13020
N         -0.87025       -1.44489       -1.05146
N         -3.39238       -0.01975       -1.53386
H         -0.85989       -1.52146        0.04069
