26
2msa2a_04.log	Energy: -904657.8321443
S         -2.69038       -0.00032        0.12150
O         -2.61371       -1.25217        0.89595
O         -1.64537        0.00001       -0.98470
O         -2.61053        1.24902        0.89979
C         -4.26103        0.00314       -0.72187
H         -4.32087        0.90153       -1.33608
H         -4.32404       -0.89397       -1.33762
H         -5.04270        0.00387        0.03817
S          2.69047       -0.00025       -0.12150
O          2.61093        1.24921       -0.89959
O          2.61387       -1.25200       -0.89611
O          1.64509        0.00005        0.98439
C          4.26083        0.00287        0.72239
H          5.04275        0.00094       -0.03740
H          4.32170        0.90249        1.33467
H          4.32243       -0.89299        1.34010
N         -0.00012        1.95628       -0.00009
H         -0.56313        1.32459       -0.61349
H          0.66780        2.50573       -0.53962
H         -0.66895        2.50407        0.54004
H          0.56366        1.32455        0.61263
N         -0.00002       -1.95641       -0.00014
H         -0.66797       -2.50497        0.54030
H          0.66773       -2.50540       -0.54037
H         -0.56392       -1.32478       -0.61281
H          0.56403       -1.32466        0.61231
