29
2msa1a1ma_141.log	Energy: -929292.3133928
S         -1.47127       -0.80671        0.22365
O         -1.90198        0.29068        1.14706
O         -0.60810       -0.29827       -0.87110
O         -2.66432       -1.53962       -0.29788
H         -3.94334       -0.38700       -0.36813
C         -0.51054       -1.95666        1.17406
H          0.39080       -1.44149        1.51315
H         -1.12074       -2.29933        2.00943
H         -0.24779       -2.78737        0.51791
S          2.89372       -0.06611       -0.23770
O          4.20774       -0.62402       -0.47880
O          2.26865       -0.23591        1.07434
O          1.93328       -0.67108       -1.35000
H          0.96856       -0.52457       -1.12989
C          2.90964        1.67110       -0.62262
H          3.64601        2.13284        0.03693
H          3.20520        1.78248       -1.66568
H          1.91902        2.08530       -0.41670
N          0.49653        2.28814        1.57286
H          1.17363        1.58367        1.85691
H         -0.38795        1.79680        1.45956
H          0.39296        2.94620        2.33783
N         -4.19480        0.62073       -0.19540
H         -5.16028        0.72512        0.10631
C         -3.85873        1.43761       -1.38917
H         -4.01832        2.49203       -1.16698
H         -2.80794        1.26067       -1.62275
H         -4.48208        1.12609       -2.22642
H         -3.52354        0.82518        0.57854
