42
2msa2eda_408.log	Energy: -1072751.3082303
S          0.10810        2.55663        0.27991
O          0.89456        3.77856        0.19668
O          0.64504        1.42212       -0.57963
O         -1.34573        2.69697       -0.01100
H         -1.89742        1.27636       -0.68257
C          0.22381        1.92791        1.94799
H          1.27538        1.74140        2.16999
H         -0.18235        2.68379        2.62113
H         -0.34812        0.99893        1.99666
S          2.63779       -1.13956        0.13527
O          2.36313       -1.81425       -1.13440
O          1.71096       -1.41401        1.23587
O          2.81114        0.39341       -0.07527
H          1.88546        0.88106       -0.30844
C          4.28306       -1.56641        0.65216
H          4.29613       -2.64492        0.81182
H          4.97569       -1.28306       -0.13968
H          4.50317       -1.03468        1.57732
H         -3.83490       -2.14105        2.49352
H         -4.35895       -2.66755        0.89131
H         -2.04386       -3.37332        1.41217
H         -2.12387       -2.37071       -0.03483
H         -1.25122       -1.42130        2.59256
H         -0.35889       -1.51518        1.24099
H         -4.98121       -0.41343        1.15547
H         -3.47218        0.03315        1.59879
C         -3.67947       -1.98738        1.41415
C         -2.24024       -2.35087        1.05468
N         -3.99656       -0.60986        1.00944
N         -1.30793       -1.35606        1.57986
H         -2.94385       -0.59247       -2.71147
H         -2.41310        1.09000       -2.92662
H         -0.79543       -0.53848       -3.97602
H         -0.04873        0.39322       -2.66419
H         -0.79349       -2.41579       -2.55797
H          0.52322       -1.65954       -1.92125
H         -3.02321        0.01484       -0.49738
H         -1.41994       -0.31794       -0.61564
C         -2.16744        0.13527       -2.45801
C         -0.79085       -0.37667       -2.89064
N         -2.15264        0.30467       -0.98701
N         -0.47265       -1.56587       -2.10924
