38
2msa1ma1tma_124.log	Energy: -1003266.3398805
S         -2.62478       -1.38222        0.04653
O         -3.42928       -0.17168        0.03673
O         -1.88024       -1.72036        1.25308
O         -1.63793       -1.38405       -1.19951
H         -0.71387       -1.10046       -0.94246
C         -3.65686       -2.75441       -0.41418
H         -4.42831       -2.83836        0.35195
H         -4.10287       -2.54057       -1.38521
H         -3.04309       -3.65372       -0.44937
S          1.61983       -0.08465        0.39425
O          0.82999       -0.66682       -0.70353
O          2.48316        1.03673        0.02003
O          2.49546       -1.20483        1.04670
H          3.51768       -1.11641        0.69760
C          0.52427        0.38210        1.69616
H         -0.12968        1.15160        1.25935
H         -0.05425       -0.49502        1.98970
H          1.12553        0.77355        2.51660
N          4.83352       -0.87027        0.11323
H          4.93098        0.13957        0.19521
C          4.80700       -1.26317       -1.30603
H          5.72653       -0.99591       -1.83539
H          4.65351       -2.34162       -1.37468
H          3.96168       -0.76596       -1.78550
H          5.61166       -1.30202        0.60241
N         -0.93941        2.63188       -0.12117
C         -2.19518        3.10258        0.43917
H         -2.93412        2.29832        0.40417
H         -2.04663        3.39129        1.48499
H         -2.59532        3.97940       -0.10564
C          0.09944        3.64407       -0.04194
H          0.24852        3.94014        1.00191
H          1.04133        3.23284       -0.41634
H         -0.15145        4.55181       -0.62406
C         -1.11372        2.16023       -1.48603
H         -0.17631        1.73119       -1.85156
H         -1.88220        1.38406       -1.50995
H         -1.41805        2.97467       -2.17163
