34
2msa1a1eda_206.log	Energy: -988700.2874508
S         -1.56367       -1.71304        0.02444
O         -1.03029       -3.06624        0.11334
O         -0.59512       -0.72997       -0.61574
O         -2.04061       -1.12142        1.31082
H         -0.90872       -0.10765        1.97836
C         -2.97593       -1.71239       -1.05823
H         -3.72697       -2.36893       -0.61759
H         -3.34277       -0.68618       -1.13355
H         -2.65324       -2.09630       -2.02641
S          2.58437       -0.11343       -0.16062
O          2.33449       -0.32766        1.27478
O          2.39098        1.25831       -0.63314
O          1.78480       -1.12686       -1.01839
H          0.72796       -1.03394       -0.85823
C          4.24465       -0.62438       -0.51734
H          4.35471       -1.66606       -0.21767
H          4.41547       -0.50009       -1.58619
H          4.90687        0.02062        0.06049
N         -0.16519        0.59172        2.23502
H         -0.22255        0.83292        3.21976
H         -0.26419        1.45560        1.61870
H          0.76003        0.18000        2.01986
H         -1.33497        1.56357       -1.55774
H         -2.53062        2.82248       -1.85305
H         -0.61438        3.98872       -1.18347
H         -1.68012        4.01813        0.22788
H          0.66023        2.27242       -0.13303
H          0.49805        3.49025        0.91795
H         -2.44803        0.97137        0.43449
H         -3.48903        2.24417        0.31810
C         -1.96127        2.31532       -1.06491
C         -1.06356        3.36221       -0.39883
N         -2.90156        1.60920       -0.21083
N         -0.02702        2.75458        0.45193
