41
2msa1dma1tma_32.log	Energy: -1027943.7615330
S          1.23016        2.29374       -0.03925
O          1.51464        3.62402        0.45167
O          0.17207        1.63806        0.92079
O          2.36414        1.36553       -0.20688
H          2.67997       -0.27120        0.17013
C          0.38455        2.38635       -1.59803
H         -0.48063        3.03675       -1.46634
H          1.08317        2.81430       -2.31804
H          0.08717        1.37285       -1.88156
S         -0.20678       -1.63154       -0.56152
O          0.91907       -2.60188       -0.70289
O         -0.38618       -0.74043       -1.71471
O         -0.03706       -0.86610        0.73141
H          0.08417        0.62115        0.79118
C         -1.69072       -2.58591       -0.36697
H         -1.82625       -3.16801       -1.27915
H         -1.56472       -3.24122        0.49517
H         -2.51585       -1.87791       -0.21821
N          2.99106       -1.24370        0.36801
C          2.97128       -1.45306        1.83118
C          4.30077       -1.46634       -0.27464
H          2.25724       -1.85906       -0.07318
H          3.65480       -0.74801        2.30683
H          1.95047       -1.28490        2.17450
H          3.27448       -2.47814        2.04971
H          5.03092       -0.76744        0.13619
H          4.62147       -2.49335       -0.09392
H          4.19363       -1.29755       -1.34600
N         -3.74033       -0.05707        0.29565
C         -3.14660        1.01020       -0.49291
H         -2.06545        1.01908       -0.34273
H         -3.33813        0.83689       -1.55576
H         -3.54585        2.00536       -0.21765
C         -5.17773       -0.11729        0.10468
H         -5.40366       -0.26042       -0.95630
H         -5.59260       -0.96432        0.65970
H         -5.68937        0.80336        0.44598
C         -3.39247        0.07125        1.70139
H         -3.82316       -0.76341        2.26366
H         -2.30564        0.03585        1.81495
H         -3.76322        1.01483        2.14428
