35
2msa1ma1dma_328.log	Energy: -978610.3508202
S          2.65418        0.79769       -0.00657
O          2.11641        1.96835        0.66364
O          2.56168       -0.50185        0.66771
O          4.17505        1.05371       -0.36205
H          4.75889        0.25510       -0.02567
C          1.90308        0.66517       -1.60903
H          0.83215        0.49360       -1.45758
H          2.07634        1.60247       -2.13806
H          2.36114       -0.17306       -2.13440
S         -1.90589       -0.05844        0.20772
O         -1.21671        0.07950       -1.08351
O         -2.56733       -1.36525        0.42133
O         -2.91372        1.06220        0.43189
H         -4.20717        0.62360        0.08509
C         -0.69915        0.16849        1.49452
H          0.06296       -0.60442        1.38399
H         -0.24354        1.15248        1.37593
H         -1.20428        0.08303        2.45660
N          5.48551       -1.02323        0.49133
H          6.46367       -0.90909        0.73736
C          5.29864       -2.11336       -0.47572
H          5.69548       -3.07276       -0.12586
H          4.22832       -2.22287       -0.66136
H          5.79052       -1.84933       -1.41469
H          4.96758       -1.22220        1.34367
N         -5.20068        0.19515       -0.22418
C         -5.64556       -0.74180        0.83106
C         -5.00517       -0.45028       -1.54309
H         -5.85826        0.96768       -0.31019
H         -4.85125       -1.47860        0.96267
H         -5.78026       -0.18741        1.76037
H         -6.58243       -1.22230        0.53966
H         -4.25051       -1.22867       -1.41973
H         -5.94611       -0.87651       -1.89829
H         -4.63379        0.29537       -2.24662
