42
2msa2eda_288.log	Energy: -1072753.8921950
S          2.65261       -1.00722       -0.52114
O          1.59440       -1.72610       -1.24238
O          2.56165       -1.03616        0.93681
O          2.77185        0.45901       -1.04123
H          1.88341        1.00281       -0.84100
C          4.22276       -1.64719       -1.04353
H          4.25346       -2.69631       -0.74821
H          4.29186       -1.54570       -2.12604
H          5.00768       -1.08087       -0.54300
S          0.21367        2.18683        0.76105
O         -0.36070        3.52156        0.66343
O          0.66399        1.64958       -0.58858
O         -0.65520        1.17034        1.41846
H         -0.76849       -0.29321        0.55697
C          1.70086        2.27254        1.74331
H          2.38474        2.97423        1.26431
H          1.41725        2.63392        2.73225
H          2.13830        1.27415        1.80444
H         -4.43093        0.18682       -2.49854
H         -4.61814        0.20616       -0.74045
H         -3.27595        2.14452       -1.58719
H         -2.40957        1.16174       -0.42028
H         -1.88813        1.28198       -3.27542
H         -0.84476        1.26685       -2.00825
H         -3.96585       -1.98202       -1.38029
H         -2.69794       -1.40188       -2.25245
C         -3.88822        0.07912       -1.54729
C         -2.81263        1.15915       -1.43768
N         -3.26710       -1.24755       -1.42301
N         -1.71570        0.87689       -2.36208
H         -0.87970       -3.24512        0.81973
H          0.29214       -2.16811        1.62764
H         -1.55215       -2.72408        3.14492
H         -1.55062       -0.99231        2.77908
H         -3.75652       -2.18817        2.65044
H         -3.38800       -1.41108        1.26782
H         -0.12336       -1.38051       -0.53909
H         -1.79711       -1.31156       -0.33390
C         -0.72918       -2.25197        1.24896
C         -1.73822       -1.98978        2.35548
N         -0.87095       -1.25469        0.15849
N         -3.10659       -2.17795        1.87236
