35
2msa1ma1dma_118.log	Energy: -978625.3775698
S          2.10673       -0.95016        0.19866
O          1.87809       -0.71167        1.62846
O          2.58988        0.23476       -0.55852
O          0.90097       -1.54372       -0.48930
C          3.38063       -2.18618        0.04414
H          3.53963       -2.38522       -1.01542
H          4.28615       -1.79037        0.50446
H          3.04503       -3.08410        0.56312
S         -2.32120       -0.74117       -0.02884
O         -2.68257       -1.01516       -1.41203
O         -1.79336        0.60496        0.24987
O         -1.35260       -1.82524        0.54440
H         -0.38590       -1.72430        0.16622
C         -3.72428       -1.01511        1.02295
H         -4.49079       -0.30182        0.71911
H         -4.06732       -2.03824        0.87161
H         -3.42182       -0.84790        2.05604
N          0.80752        2.21948        1.56357
H          0.97818        1.22978        1.73934
C         -0.27465        2.70894        2.41688
H         -0.09818        2.57642        3.49423
H         -0.43871        3.77587        2.23119
H         -1.19474        2.18144        2.15312
H          1.67987        2.68322        1.79852
N          0.32386        1.56191       -1.37381
C          0.32002        3.02567       -1.55671
C         -0.00899        0.78601       -2.59016
H          1.24962        1.23600       -1.01463
H         -0.65985        3.33764       -1.92243
H          0.52667        3.47268       -0.58483
H          1.08925        3.29840       -2.28088
H         -1.04291        0.98609       -2.87277
H          0.67327        1.07617       -3.39062
H          0.11373       -0.27203       -2.35918
H         -0.34880        1.31449       -0.62726
