38
2msa1ma1tma_106.log	Energy: -1003277.9015542
S         -1.89148       -1.78753        0.01319
O         -3.07891       -2.64369        0.02976
O         -1.59353       -1.10578        1.30203
O         -1.90660       -0.77112       -1.10368
H         -2.15100        0.61810       -0.53364
C         -0.48207       -2.82055       -0.35835
H         -0.38475       -3.55594        0.44150
H         -0.67300       -3.31722       -1.31015
H          0.40221       -2.18477       -0.43054
S          1.77099        0.77386        0.26562
O          1.90790       -0.31815       -0.69969
O          0.87593        1.87925       -0.05970
O          3.20485        1.35149        0.56376
H          3.93229        0.85680       -0.03506
C          1.27783        0.10623        1.83323
H          0.27325       -0.31893        1.70930
H          1.99464       -0.66531        2.11554
H          1.27947        0.91768        2.56174
N          4.86989        0.05749       -0.90091
H          4.35405       -0.04607       -1.77151
C          5.09262       -1.26169       -0.28905
H          5.70262       -1.92363       -0.91209
H          5.58573       -1.12887        0.67630
H          4.11916       -1.72702       -0.12375
H          5.74914        0.51896       -1.11373
N         -2.57398        1.58018       -0.27622
C         -2.10819        2.53435       -1.30710
H         -1.02208        2.60399       -1.24154
H         -2.39418        2.15091       -2.28745
H         -2.56826        3.51138       -1.13607
C         -4.03578        1.35266       -0.33771
H         -4.28928        0.97487       -1.32829
H         -4.30015        0.59794        0.40392
H         -4.56123        2.28966       -0.13578
C         -2.13992        1.96931        1.08633
H         -2.35893        1.14068        1.76035
H         -1.06512        2.14644        1.06250
H         -2.67236        2.87737        1.38346
