34
2msa1a1eda_105.log	Energy: -988703.8147004
S          2.28897        0.60817        0.20387
O          2.62697        2.02284       -0.00134
O          1.63380        0.01416       -1.01328
O          1.46265        0.35316        1.41726
C          3.81473       -0.28394        0.43323
H          4.42628       -0.13568       -0.45680
H          4.31070        0.12198        1.31501
H          3.58428       -1.34083        0.57101
S         -0.85661       -2.34386       -0.21986
O         -1.54356       -3.55790       -0.59753
O         -1.62190       -1.08499       -0.24435
O          0.41442       -2.20228       -1.13014
H          0.88162       -1.29207       -1.05110
C         -0.17669       -2.51817        1.41516
H         -1.01543       -2.61549        2.10590
H          0.43173       -3.42281        1.42663
H          0.41980       -1.62884        1.63890
N          0.30287        2.68538       -1.78589
H          0.46431        1.88533       -2.39289
H          1.21099        2.89121       -1.36651
H          0.01600        3.47081       -2.35981
H         -2.24421        1.85072        2.05342
H         -1.58842        3.31851        1.30164
H         -3.92138        3.11364        0.65088
H         -2.92590        2.84419       -0.76782
H         -3.38039        0.48481       -0.58646
H         -4.25673        0.72324        0.78001
H         -0.10350        1.34967        1.07648
H         -1.23750        0.58222        0.18886
C         -1.99021        2.32163        1.09943
C         -3.22293        2.40577        0.19196
N         -0.91651        1.52744        0.46287
N         -3.92553        1.16593       -0.06914
H         -0.54413        2.00758       -0.41012
