38
2msa1ma1tma_128.log	Energy: -1003266.2277508
S         -1.31527       -1.12608       -1.09427
O         -1.47310       -2.36398       -1.83861
O         -0.58761       -1.23570        0.19641
O         -2.70263       -0.47424       -0.76589
H         -3.09566       -0.90470        0.13126
C         -0.55376        0.11642       -2.08926
H          0.46299       -0.22557       -2.29155
H         -1.13580        0.20393       -3.00718
H         -0.53335        1.05353       -1.51359
S          2.75608       -0.47494        0.27429
O          2.52786        0.58326        1.24793
O          2.55416       -0.16382       -1.13521
O          1.92057       -1.77053        0.66300
H          0.94927       -1.62394        0.46052
C          4.38487       -1.14606        0.50457
H          5.08782       -0.34452        0.27545
H          4.48678       -1.46289        1.54203
H          4.51440       -1.98169       -0.18224
N         -3.50417       -1.52348        1.43272
H         -4.51082       -1.59132        1.55097
C         -2.88431       -0.78104        2.54415
H         -3.03423       -1.26640        3.51356
H         -1.81559       -0.69254        2.34132
H         -3.31257        0.22266        2.58092
H         -3.14351       -2.47435        1.40197
N         -0.49632        2.72210       -0.15436
C         -1.56466        3.63886       -0.50378
H         -1.37473        4.07501       -1.48939
H         -2.51617        3.09926       -0.54634
H         -1.66664        4.46651        0.22494
C         -0.74360        2.08670        1.12912
H         -1.69016        1.53957        1.08367
H          0.05731        1.37713        1.35044
H         -0.80081        2.82245        1.95475
C          0.80483        3.37113       -0.18072
H          1.58207        2.63960        0.05230
H          0.99329        3.77881       -1.17872
H          0.87237        4.19938        0.55058
