40
2msa1dma1eda_182.log	Energy: -1038022.8278548
S          2.52613       -0.46830        0.38687
O          2.90844        0.67721       -0.45382
O          2.43106       -1.77328       -0.27674
O          1.24901       -0.15455        1.16177
H          0.10094       -1.14369        0.99079
C          3.77395       -0.61482        1.65495
H          4.71928       -0.84126        1.16090
H          3.83802        0.33278        2.18990
H          3.48748       -1.42304        2.32781
S         -1.20855       -1.90066       -0.59746
O         -2.63772       -2.18005       -0.55808
O         -0.77130       -1.67152        0.90573
O         -0.75458       -0.78405       -1.42148
H         -0.27407        1.40059       -1.11803
C         -0.30594       -3.35245       -1.06904
H         -0.60682       -4.16727       -0.41083
H         -0.56368       -3.57021       -2.10604
H          0.75558       -3.11462       -0.96448
N         -3.05835        0.84269        0.53834
C         -4.06034        1.77936        0.03847
C         -3.13020        0.64722        1.98529
H         -3.18700       -0.06070        0.08345
H         -3.88388        2.76878        0.47458
H         -3.97442        1.86221       -1.04802
H         -5.08906        1.47926        0.28709
H         -2.87989        1.58556        2.49273
H         -4.12905        0.33321        2.32187
H         -2.40555       -0.11528        2.27831
H          1.96116        3.00542        0.20471
H          1.34102        4.50398       -0.50177
H         -0.28694        3.34157        1.09948
H         -0.94440        3.63947       -0.52830
H          0.22109        1.06943        0.40988
H         -1.43590        1.35757        0.10757
H          1.70588        3.51057       -2.49903
H          2.02998        2.05721       -1.78268
C          1.21774        3.41637       -0.48821
C         -0.18400        3.09617        0.03934
N          1.38016        2.83914       -1.81780
N         -0.44290        1.65397       -0.13828
