35
2msa1ma1dma_196.log	Energy: -978620.8436382
S         -0.52735       -2.02514       -0.24321
O         -0.28416       -0.93334       -1.24529
O         -1.82017       -2.68518       -0.43895
O         -0.34752       -1.48339        1.14807
H         -1.53904       -0.37432        1.42680
C          0.77779       -3.21067       -0.47234
H          0.66781       -3.63090       -1.47232
H          1.72965       -2.68524       -0.37419
H          0.66713       -3.98534        0.28668
S          2.58521        0.67655        0.07399
O          3.43569        1.83845       -0.08765
O          3.02930       -0.63484       -0.37620
O          1.19799        1.01639       -0.63247
H          0.67781        0.16837       -0.88771
C          2.11901        0.54053        1.78866
H          3.02249        0.28632        2.34462
H          1.73209        1.50627        2.11579
H          1.36774       -0.24839        1.86859
N         -2.31165        0.34729        1.42684
H         -2.41762        0.71512        2.36935
C         -3.57136       -0.26081        0.93591
H         -4.33410        0.51244        0.83424
H         -3.37033       -0.73187       -0.02623
H         -3.90497       -1.03145        1.63052
H         -1.98866        1.15033        0.76217
N         -1.50724        2.25659       -0.35773
C         -1.79943        3.64952       -0.02383
C         -2.08224        1.84529       -1.64427
H         -0.49594        2.12734       -0.40816
H         -2.87862        3.77649        0.11201
H         -1.30028        3.91774        0.91112
H         -1.47032        4.34765       -0.80552
H         -3.17490        1.89431       -1.58399
H         -1.75396        2.49126       -2.46944
H         -1.78125        0.81628       -1.85528
