40
2msa1dma1eda_71.log	Energy: -1038034.1040744
S          2.00076       -1.06808        0.90965
O          3.04276       -2.08799        0.88439
O          1.27650       -0.91010       -0.40861
O          2.43382        0.28120        1.37674
H          1.35658        1.39135        0.78131
C          0.74071       -1.58973        2.06671
H          1.20969       -1.66935        3.04801
H         -0.06109       -0.84776        2.08069
H          0.36450       -2.56608        1.75698
S         -2.34673        0.68289        0.54856
O         -1.55800        1.15313        1.70841
O         -2.63556       -0.78084        0.57371
O         -1.73757        1.09392       -0.74821
H         -0.08669       -1.58623       -0.89115
C         -3.93783        1.48349        0.65067
H         -4.40166        1.19118        1.59288
H         -3.78083        2.56184        0.61767
H         -4.54323        1.15669       -0.19490
N         -1.00232       -1.95352       -1.26771
C         -1.00533       -3.42487       -1.18426
C         -1.18867       -1.41038       -2.62895
H         -1.72444       -1.55285       -0.62196
H         -0.16818       -3.82208       -1.76048
H         -0.89776       -3.71754       -0.13955
H         -1.94672       -3.81427       -1.57589
H         -0.36683       -1.74649       -3.26373
H         -2.13994       -1.76196       -3.03334
H         -1.19461       -0.32300       -2.55266
H          0.81915        3.69162       -1.03213
H          1.97232        3.75569        0.33067
H          3.06692        3.21192       -1.85771
H          3.31458        1.96533       -0.62519
H          2.49796        1.35299       -3.02611
H          1.84544        0.56419       -1.74604
H          0.05697        2.42900        0.98875
H          0.12021        1.54702       -0.36511
C          1.50695        3.10798       -0.41627
C          2.56489        2.42885       -1.28174
N          0.71793        2.07435        0.29352
N          1.93627        1.47705       -2.19305
