42
2msa2eda_598.log	Energy: -1072738.5000090
S         -2.39189       -1.70650        0.08482
O         -3.36505       -1.39751       -0.94987
O         -2.33732       -0.88216        1.28648
O         -0.95905       -1.79467       -0.57828
H         -0.26663       -1.22232       -0.10464
C         -2.63705       -3.40063        0.57787
H         -3.63115       -3.46771        1.02119
H         -2.56990       -4.02968       -0.30959
H         -1.87079       -3.66363        1.30666
S          1.33751        0.84808        0.70005
O          1.00872       -0.60241        0.50929
O          1.50692        1.56233       -0.58253
O          2.57225        0.97554        1.54968
H          3.75597        1.01538        0.51541
C          0.00292        1.57685        1.60622
H         -0.89120        1.49821        0.98442
H         -0.11916        1.02208        2.53605
H          0.25849        2.61907        1.79721
H         -4.20999        1.63823       -1.21377
H         -4.12927        3.34861       -0.76200
H         -2.41057        2.89256       -2.38331
H         -1.65636        3.25631       -0.81970
H         -1.99978        0.53808       -1.88049
H         -0.57672        1.34152       -1.62718
H         -4.34400        2.11101        1.21753
H         -3.09267        1.13150        0.85748
C         -3.60851        2.38821       -0.67175
C         -2.25392        2.51296       -1.35958
N         -3.44671        2.07915        0.74612
N         -1.53747        1.24274       -1.31420
H          5.86665       -0.49794       -0.99488
H          5.64599       -0.44790        0.77556
H          4.61233       -2.51100       -0.33042
H          3.45932       -1.54065        0.59479
H          3.40056       -1.99258       -2.21129
H          2.27630       -1.27668       -1.22721
H          5.02275        1.66060       -0.45157
H          3.77277        0.77084       -1.13245
C          5.13234       -0.43202       -0.18774
C          4.08790       -1.55025       -0.30074
N          4.41120        0.85890       -0.32312
N          3.26060       -1.31205       -1.47729
