29
2msa1a1ma_123.log	Energy: -929291.7219840
S          1.91748        0.71760        0.19337
O          1.40129        0.61623        1.55012
O          1.75886       -0.45036       -0.68288
O          3.44509        1.10513        0.22423
H          4.02624        0.31294       -0.17399
C          1.19101        2.13577       -0.58582
H          0.11665        1.94656       -0.65176
H          1.39976        3.00564        0.03717
H          1.63095        2.24731       -1.57651
S         -2.50342       -0.15551       -0.19651
O         -1.88661        1.06340       -0.69808
O         -3.23613       -1.00015       -1.14102
O         -3.47515        0.20611        1.00499
H         -4.44635        0.00204        0.74141
C         -1.26886       -1.11932        0.63396
H         -0.50575       -1.37227       -0.10438
H         -0.82098       -0.50898        1.41922
H         -1.74544       -2.01165        1.03865
N         -5.89036       -0.40681        0.12384
H         -6.46106        0.37898       -0.17016
H         -6.47009       -1.03471        0.67027
H         -5.56865       -0.89885       -0.70793
N          4.69531       -0.93008       -0.72403
H          4.00826       -1.23466       -1.41048
C          4.81564       -1.92970        0.34793
H          5.15409       -2.90591       -0.01474
H          5.51806       -1.56539        1.10014
H          3.83859       -2.04745        0.82081
H          5.58053       -0.79225       -1.20141
