40
2msa1dma1eda_198.log	Energy: -1038020.6286412
S         -2.09770       -1.08958       -0.72509
O         -2.63059        0.26964       -0.92251
O         -2.23945       -1.63272        0.63577
O         -0.65885       -1.15751       -1.20550
C         -2.99187       -2.17473       -1.82244
H         -4.04314       -2.14562       -1.53471
H         -2.86028       -1.81380       -2.84244
H         -2.58963       -3.18167       -1.70991
S          2.31686       -1.11955        0.18026
O          2.09236       -0.51012        1.48824
O          2.38057       -0.19665       -0.95547
O          1.27661       -2.25264       -0.10204
H          0.40580       -1.85960       -0.53166
C          3.80669       -2.08469        0.24249
H          4.62188       -1.39824        0.47289
H          3.69770       -2.83104        1.02918
H          3.95404       -2.55487       -0.72909
N         -1.24906        0.80258        2.08853
C         -2.53374        1.48453        2.23693
C         -0.38104        0.93382        3.25597
H         -1.43666       -0.18412        1.89921
H         -2.36586        2.56383        2.32904
H         -3.13657        1.29313        1.34650
H         -3.08596        1.14846        3.12632
H         -0.13908        1.99141        3.41085
H         -0.85479        0.55738        4.17452
H          0.54664        0.38711        3.07696
H          0.65171        3.32547        0.53526
H          1.80022        1.96972        0.45312
H          2.36506        3.66840       -1.27265
H          1.86187        2.14505       -2.00982
H          0.27385        4.60159       -1.88847
H          0.52752        3.59750       -3.15664
H         -0.56028        1.26790        0.67582
H         -0.83906        1.97737       -0.86602
C          1.01272        2.49893       -0.08540
C          1.50504        3.00421       -1.43461
N         -0.11216        1.56449       -0.27490
N          0.39691        3.63085       -2.15355
H          0.17673        0.70285       -0.75716
