32
2msa2ma_89.log	Energy: -953959.1786230
S         -3.08027       -0.47399       -0.01221
O         -2.12122       -0.17422        1.08445
O         -2.71571       -1.63561       -0.83031
O         -3.34357        0.77151       -0.82057
H         -2.08128        1.65945       -0.78836
C         -4.64695       -0.84266        0.76289
H         -4.93608        0.00386        1.38577
H         -5.38279       -1.01409       -0.02316
H         -4.51748       -1.74092        1.36728
S          1.68262       -0.36725       -0.11833
O          1.08142        0.62427       -1.02208
O          2.16951        0.13335        1.16936
O          2.86413       -1.06529       -0.87134
H          3.79196       -0.91114       -0.33777
C          0.52088       -1.67512        0.13560
H         -0.33744       -1.25245        0.66815
H          0.19624       -2.04474       -0.83722
H          1.01506       -2.45364        0.71673
N         -1.16497        2.21842       -0.67867
H         -0.37791        1.56407       -0.84848
C         -1.06260        2.77083        0.69199
H         -0.08762        3.23912        0.82949
H         -1.85984        3.49844        0.84571
H         -1.18924        1.93661        1.38225
H         -1.12766        2.94537       -1.38903
N          4.97237       -0.56803        0.45582
H          4.57452       -0.46967        1.38788
C          5.51350        0.72076       -0.00378
H          6.31061        1.09981        0.64318
H          5.89983        0.60479       -1.01802
H          4.69945        1.44762       -0.02602
H          5.69490       -1.28052        0.49383
