37
2msa1ma1eda_101.log	Energy: -1013362.0752446
S         -0.24434       -2.34579       -0.10150
O         -0.29583       -1.74349       -1.45579
O         -1.49677       -2.21904        0.66231
O          0.92927       -1.82379        0.68667
C          0.07669       -4.08438       -0.32883
H         -0.75827       -4.51113       -0.88478
H          1.00769       -4.19089       -0.88572
H          0.16031       -4.54451        0.65584
S          2.38296        1.18500       -0.12760
O          2.24041        1.58011        1.27242
O          1.28938        1.55249       -1.02581
O          2.71450       -0.34053       -0.24817
H          1.95355       -0.95565        0.10809
C          3.90047        1.85305       -0.76572
H          4.71632        1.53181       -0.11906
H          4.03508        1.48955       -1.78395
H          3.79733        2.93840       -0.75057
N         -0.63396        0.66288        1.86146
H         -0.46576       -0.33819        1.94449
C         -1.59934        1.11159        2.86290
H         -1.26845        0.95075        3.89651
H         -1.79285        2.18087        2.73169
H         -2.54209        0.57421        2.72317
H          0.27049        1.11688        1.98208
H         -3.05890        0.14817       -1.90069
H         -2.96369       -0.47473       -0.24439
H         -4.70502        1.31500       -0.41423
H         -3.38554        1.82141        0.64342
H         -3.78954        2.73766       -2.10892
H         -3.59494        3.63163       -0.75300
H         -0.80816        0.01290       -1.24703
H         -1.19759        1.65479       -1.24922
C         -2.81349        0.41018       -0.86709
C         -3.64302        1.59672       -0.39698
N         -1.37897        0.75406       -0.80393
N         -3.32191        2.76977       -1.20913
H         -1.05957        0.80778        0.22423
