35
2msa1a1tma_84.log	Energy: -978616.1015240
S         -1.41735       -1.62564       -0.24349
O         -1.80937       -1.06770       -1.55347
O         -2.48868       -2.24765        0.53879
O         -0.67071       -0.57276        0.56448
C         -0.18479       -2.87979       -0.56459
H         -0.64285       -3.63897       -1.19942
H          0.66129       -2.40976       -1.06824
H          0.11540       -3.31874        0.38806
S          2.65138        0.13834        0.08036
O          2.42314       -0.61153       -1.14457
O          2.09768        1.47100        0.23079
O          4.26517        0.26857        0.25199
H          4.67754       -0.08990       -0.54713
C          2.24677       -0.83027        1.50592
H          1.15523       -0.92281        1.49167
H          2.73660       -1.79909        1.41035
H          2.59639       -0.29421        2.38826
N         -2.60950        0.76554        2.47827
H         -3.47797        0.23830        2.46299
H         -2.37995        0.92097        3.45479
H         -1.90458        0.13939        2.08609
N         -1.28919        1.83060       -0.49752
C         -0.86682        2.90149        0.43648
H         -1.41837        2.76557        1.36833
H          0.20509        2.80499        0.60770
H         -1.09505        3.87253       -0.01014
C         -0.55681        1.87769       -1.78722
H          0.51246        1.85708       -1.57830
H         -0.84083        0.99531       -2.36167
H         -0.82564        2.79635       -2.31471
C         -2.76069        1.83124       -0.70070
H         -3.01510        0.97238       -1.32256
H         -3.23014        1.73975        0.27984
H         -3.04740        2.76843       -1.18461
H         -1.03957        0.90456       -0.04997
