29
2msa1a1ma_132.log	Energy: -929291.0953405
S         -2.64864        0.42232       -0.51836
O         -2.16368        1.69538       -0.01312
O         -4.06650        0.28835       -0.85277
O         -2.27587       -0.71658        0.52607
H         -3.12137       -1.23428        0.80271
C         -1.66373       -0.03762       -1.92179
H         -1.81254        0.73460       -2.67781
H         -0.61784       -0.07948       -1.60709
H         -2.01097       -1.00523       -2.28398
S          1.86201        0.54673        0.48852
O          1.34095       -0.19684       -0.66536
O          2.60966        1.76428        0.20909
O          2.73574       -0.44565        1.35941
H          3.34333       -0.99210        0.70905
C          0.54951        0.89411        1.62564
H         -0.13157        1.59030        1.13263
H          0.02858       -0.03706        1.84577
H          0.98845        1.33549        2.52019
N         -4.56125       -1.88855        1.11974
H         -4.90232       -1.73029        2.06235
H         -4.68898       -2.87007        0.89700
H         -5.12498       -1.33321        0.47813
N          4.14391       -1.63768       -0.47680
H          4.58305       -2.53457       -0.29555
C          5.11935       -0.65819       -0.98221
H          5.58919       -0.96584       -1.92247
H          4.61181        0.29740       -1.13169
H          5.89535       -0.50993       -0.22847
H          3.40496       -1.78815       -1.16030
