38
2msa1ma1tma_01.log	Energy: -1003299.0732656
S         -2.69191       -0.34373       -0.18109
O         -3.01844        0.85668       -0.97093
O         -1.57724       -0.10581        0.78880
O         -2.44696       -1.56652       -0.99516
C         -4.13453       -0.71262        0.80771
H         -4.35562        0.15310        1.43271
H         -4.96266       -0.91575        0.12824
H         -3.91982       -1.58662        1.42308
S          2.69815       -0.31898       -0.18139
O          3.01395        0.89470       -0.95536
O          2.46706       -1.53395       -1.01088
O          1.57923       -0.10357        0.78902
C          4.14297       -0.68510        0.80541
H          4.97600       -0.86314        0.12489
H          4.34944        0.17163        1.44753
H          3.93946       -1.57383        1.40322
N          0.01743       -2.31137       -0.10306
H          0.02821       -1.49244        0.52414
H         -0.85545       -2.18971       -0.65821
C          0.02704       -3.57533        0.65171
H          0.01328       -4.41308       -0.04527
H          0.92974       -3.62111        1.26136
H         -0.85462       -3.61666        1.29164
H          0.87674       -2.18886       -0.67763
N         -0.02258        2.27921        0.21786
C         -0.00759        2.29175       -1.27291
H          0.89894        1.78491       -1.60692
H         -0.90736        1.78480       -1.62464
H         -0.00396        3.33218       -1.60602
C         -1.25438        2.91595        0.75323
H         -2.11926        2.45266        0.27904
H         -1.28645        2.75988        1.83162
H         -1.21293        3.98360        0.52619
C          1.20026        2.91109        0.77888
H          1.21126        2.75100        1.85709
H          2.07293        2.44818        0.31916
H          1.16516        3.97967        0.55497
H         -0.03026        1.28132        0.50171
