40
2msa1dma1eda_271.log	Energy: -1038019.2273184
S         -2.14978       -0.34816       -0.79561
O         -1.93343       -0.83339        0.57770
O         -1.25775       -1.02712       -1.79150
O         -2.06974        1.13427       -0.90409
C         -3.80688       -0.78892       -1.28116
H         -3.90347       -1.87203       -1.20525
H         -4.50034       -0.29103       -0.60321
H         -3.96325       -0.45677       -2.30747
S          1.47809       -1.85859        0.20361
O          0.94973       -2.36939        1.45628
O          1.63722       -0.40121        0.07888
O          0.69193       -2.40769       -1.03319
H         -0.13001       -1.82713       -1.29833
C          3.05842       -2.61586       -0.09742
H          3.70954       -2.32988        0.72916
H          2.91790       -3.69637       -0.11970
H          3.44768       -2.25007       -1.04698
N          1.58091        2.98673       -1.20326
C          1.02363        2.08174       -2.21628
C          2.99464        2.72155       -0.93977
H          1.46723        3.94734       -1.51082
H          1.10467        1.05361       -1.85244
H         -0.03743        2.29458       -2.36429
H          1.54910        2.15453       -3.17960
H          3.08956        1.72056       -0.50808
H          3.61314        2.76396       -1.84936
H          3.37911        3.44854       -0.21915
H          0.42903        2.74602        2.64147
H         -1.12366        3.22551        1.90324
H         -1.39337        1.67953        3.88973
H         -2.08192        1.01005        2.40186
H         -0.17291       -0.22526        3.94888
H         -0.51632       -0.62427        2.39229
H          0.60938        2.46135        0.22940
H          0.53359        0.96006        0.96713
C         -0.45211        2.38652        2.10419
C         -1.14368        1.27812        2.90229
N          0.00048        1.83099        0.81191
N         -0.24659        0.13772        3.00920
H         -0.81165        1.58448        0.20467
