32
2msa2ma_06.log	Energy: -953981.5495426
S          2.69713        0.14791        0.10688
O          2.71556       -1.02871        0.99099
O          2.52526        1.45118        0.80141
O          1.67784       -0.00513       -0.99189
C          4.28339        0.23146       -0.70381
H          5.04362        0.37100        0.06515
H          4.44416       -0.70594       -1.23653
H          4.27529        1.07341       -1.39586
S         -2.69702       -0.14769       -0.10736
O         -2.52432       -1.45062       -0.80236
O         -2.71606        1.02922       -0.99103
O         -1.67793        0.00553        0.99160
C         -4.28329       -0.23252        0.70317
H         -5.04339       -0.37199       -0.06593
H         -4.27482       -1.07489        1.39471
H         -4.44456        0.70447        1.23645
N          0.05218       -2.02894       -0.05492
H          0.65807       -1.33530       -0.55004
H         -0.11228       -1.61376        0.86599
C          0.70176       -3.35174        0.03026
H          0.07290       -4.02792        0.60943
H          0.83102       -3.74633       -0.97745
H          1.67185       -3.22184        0.50941
H         -0.88843       -2.03088       -0.50336
N         -0.05188        2.02890        0.05509
H          0.11231        1.61503       -0.86644
H         -0.65692        1.33410        0.54971
C         -0.70269        3.35124       -0.02781
H         -0.83186        3.74416        0.98056
H         -0.07468        4.02884       -0.60623
H         -1.67288        3.22118       -0.50671
H          0.88895        2.03103        0.50303
