35
2msa1ma1dma_102.log	Energy: -978627.6361835
S          0.88410       -1.69483        0.25896
O          1.54452       -0.63783        1.05513
O          0.78189       -1.34641       -1.18089
O         -0.42078       -2.13516        0.83368
H         -1.71440       -1.34180        0.94612
C          1.92024       -3.14392        0.36300
H          2.88992       -2.90041       -0.07259
H          2.02581       -3.41168        1.41438
H          1.43968       -3.94824       -0.19393
S         -2.70901        0.24717       -0.13259
O         -4.04485        0.80325       -0.09141
O         -2.62801       -0.88535        0.95169
O         -1.57761        1.17015        0.03931
H          0.19033        1.45347        0.52803
C         -2.45321       -0.61408       -1.66844
H         -2.54491        0.12577       -2.46473
H         -1.45135       -1.05260       -1.65763
H         -3.22850       -1.37482       -1.75925
N          2.59775        0.99255       -1.46620
H          2.00415        0.16728       -1.59992
C          3.89630        0.58090       -0.91979
H          4.44957       -0.10087       -1.57753
H          4.51814        1.46236       -0.73768
H          3.71886        0.07866        0.03415
H          2.71382        1.43749       -2.37104
N          0.95712        2.13807        0.45004
C          1.61930        2.30753        1.75856
C          0.40184        3.38525       -0.11001
H          1.63869        1.71762       -0.26244
H          0.90268        2.70968        2.47717
H          1.96972        1.33052        2.08706
H          2.45566        3.00042        1.64620
H         -0.35563        3.78362        0.56587
H          1.20853        4.10906       -0.24289
H         -0.06454        3.15944       -1.06810
