37
2msa1ma1eda_548.log	Energy: -1013347.3640444
S          2.63535        1.24324        0.02307
O          3.67245        0.45035        0.70770
O          1.38806        1.41001        0.80118
O          2.33491        0.68640       -1.34905
H          1.85386       -0.74746       -1.16940
C          3.30423        2.86872       -0.27544
H          4.22465        2.76000       -0.84899
H          2.56680        3.45031       -0.82866
H          3.50589        3.32539        0.69380
S         -2.07338       -0.64875       -0.76718
O         -3.47162       -0.66694       -1.14733
O         -1.17426       -1.61117       -1.43606
O         -1.97671       -0.92731        0.78468
H         -1.11098       -1.42748        1.02297
C         -1.40925        0.98403       -0.94235
H         -1.29640        1.16373       -2.01280
H         -2.14431        1.67222       -0.50847
H         -0.44306        1.04038       -0.43034
N         -4.30970        2.04799        0.21323
H         -4.98081        2.78391        0.02471
C         -4.29103        1.70844        1.63492
H         -5.25602        1.36649        2.03771
H         -3.55768        0.91467        1.80114
H         -3.96969        2.58091        2.21138
H         -4.57320        1.23861       -0.34188
H          1.98633       -3.48376        0.09120
H          3.18127       -2.16401        0.16463
H          2.17145       -2.26291        2.26686
H          1.58804       -0.78554        1.50467
H         -0.00772       -3.26762        1.54005
H         -0.12836       -2.07866        2.64032
H          1.85101       -2.27059       -1.88734
H          0.49198       -1.78857       -1.07959
C          2.11491       -2.39880        0.16692
C          1.52811       -1.87518        1.46811
N          1.53209       -1.77985       -1.05396
N          0.11917       -2.26612        1.67100
