38
2msa2dma_94.log	Energy: -1003283.9348570
S         -2.61111        0.45656       -0.37866
O         -3.47593        0.88909       -1.46893
O         -2.57814        1.30222        0.82748
O         -1.15894        0.24954       -0.85696
C         -3.13346       -1.17273        0.13273
H         -4.13448       -1.07117        0.55325
H         -3.15427       -1.82085       -0.74435
H         -2.43039       -1.54938        0.87743
S          0.78769       -2.10684        0.23587
O         -0.11962       -2.25898        1.36758
O          1.81369       -1.06683        0.35802
O         -0.00599       -1.91892       -1.10187
H         -0.55263       -1.01698       -1.06383
C          1.57814       -3.66161       -0.09943
H          2.20053       -3.55149       -0.98687
H          2.18387       -3.90373        0.77433
H          0.80405       -4.41321       -0.25195
N          0.42906        1.76736        0.82610
C         -0.08337        3.14571        0.67402
C          0.37105        1.26115        2.21387
H         -0.14514        1.14376        0.21562
H          0.51505        3.82049        1.28977
H         -0.00293        3.43072       -0.37610
H         -1.13170        3.16232        0.97268
H          0.95967        1.91705        2.85889
H         -0.67355        1.24730        2.52714
H          0.77911        0.25149        2.22943
H          1.40849        1.74257        0.43833
N          2.85237        1.96469       -0.61985
C          2.37541        1.36090       -1.86792
C          4.04927        1.30217       -0.09915
H          3.06302        2.94426       -0.78701
H          2.09278        0.32495       -1.66697
H          1.48761        1.89197       -2.22195
H          3.13653        1.37259       -2.66151
H          3.79457        0.27153        0.15776
H          4.87473        1.29048       -0.82678
H          4.38699        1.81304        0.80637
