35
2msa1ma1dma_232.log	Energy: -978616.6973066
S         -2.84487        0.23136        0.53565
O         -3.78193        0.81783        1.48006
O         -1.39277        0.48339        0.90146
O         -3.04258        0.64116       -0.89061
H         -1.72029        1.18912       -1.54193
C         -3.04060       -1.54124        0.56624
H         -2.86692       -1.88253        1.58745
H         -4.06444       -1.76048        0.26215
H         -2.32402       -1.99004       -0.12438
S          0.90715       -1.46107       -0.48171
O          1.23137       -0.20737       -1.20247
O         -0.06209       -2.32558       -1.13996
O          0.46574       -1.12238        0.97672
H         -0.36560       -0.46590        0.97892
C          2.42199       -2.31930       -0.16723
H          2.80158       -2.65212       -1.13411
H          3.10841       -1.60917        0.30701
H          2.19541       -3.17186        0.47282
N         -0.78528        1.58914       -1.87339
H         -0.06158        0.86115       -1.70917
C         -0.45994        2.80639       -1.09254
H          0.51000        3.19609       -1.40235
H         -1.23791        3.55298       -1.25113
H         -0.44007        2.51976       -0.04141
H         -0.84070        1.77696       -2.87172
N          3.67356        0.66207        0.54187
C          4.96172        1.27710        0.26984
C          2.99578        1.25114        1.68738
H          3.07100        0.73298       -0.27287
H          5.64495        1.07891        1.10276
H          5.39921        0.83958       -0.63194
H          4.90772        2.37211        0.13539
H          3.57349        1.05238        2.59653
H          2.86760        2.34504        1.60453
H          2.01214        0.79111        1.80721
