41
2msa1dma1tma_68.log	Energy: -1027940.8447372
S         -3.03265       -0.30292       -0.53343
O         -4.36014        0.11890       -0.13023
O         -2.82873       -1.66025       -1.02299
O         -2.01170       -0.15706        0.68710
C         -2.39537        0.86122       -1.72171
H         -1.33886        0.65627       -1.89682
H         -2.98747        0.73464       -2.62883
H         -2.51391        1.86569       -1.31464
S          0.55042        1.86505        0.52705
O          0.72124        1.64376       -0.92209
O          1.16766        0.77690        1.34413
O         -0.86692        2.11886        0.92339
H         -1.69788        0.79382        0.84862
C          1.43407        3.35094        0.95413
H          2.48387        3.20289        0.69966
H          1.00921        4.17269        0.37763
H          1.31274        3.52520        2.02300
N          2.81799       -0.51411       -1.32254
C          3.14138       -0.92317       -2.68071
C          3.94001        0.12265       -0.64853
H          2.04810        0.15440       -1.34242
H          3.90995       -1.70440       -2.66006
H          2.25228       -1.33986       -3.16348
H          3.51787       -0.09830       -3.30904
H          4.74821       -0.60457       -0.50021
H          4.35852        0.97608       -1.20875
H          3.61107        0.47887        0.33221
N          0.79878       -1.88279        1.12098
C          2.19472       -2.29259        1.41315
H          2.79824       -2.02900        0.54292
H          2.54166       -1.74784        2.29187
H          2.21874       -3.36879        1.59959
C         -0.11525       -2.16762        2.25508
H          0.26641       -1.66257        3.14297
H         -1.10301       -1.78152        2.00631
H         -0.15153       -3.24691        2.41883
C          0.31487       -2.48454       -0.14957
H         -0.70304       -2.14730       -0.34732
H          0.99570       -2.16619       -0.93948
H          0.33098       -3.57211       -0.04396
H          0.83244       -0.83740        1.01883
