37
2msa1ma1eda_401.log	Energy: -1013352.9981883
S         -2.79472       -1.08164        0.25764
O         -3.77286       -0.08796        0.73528
O         -1.73775       -1.43062        1.22900
O         -2.20139       -0.68731       -1.07258
H         -1.77467        0.82406       -1.17979
C         -3.70059       -2.58252       -0.08810
H         -4.15263       -2.92202        0.84431
H         -4.46856       -2.35790       -0.82831
H         -3.00177       -3.32760       -0.46901
S          1.81700       -0.04118       -0.66902
O          1.03582        0.75902       -1.60387
O          2.11462        0.53724        0.64855
O          3.17760       -0.41990       -1.35786
H          3.97830       -0.35091       -0.66436
C          1.02039       -1.60594       -0.43592
H          0.07819       -1.43776        0.09709
H          0.83210       -2.03641       -1.41928
H          1.68780       -2.23677        0.15245
N          5.04334       -0.25418        0.40253
H          5.99111       -0.28064        0.03855
C          4.82791       -1.30713        1.40766
H          5.54407       -1.26158        2.23433
H          3.81783       -1.19650        1.80680
H          4.90894       -2.28307        0.92399
H          4.89759        0.66192        0.81859
H         -2.25471        3.59031       -0.17661
H         -3.12856        2.06310        0.20316
H         -1.64819        2.68770        2.09157
H         -1.10538        1.19538        1.34503
H          0.25950        3.74469        1.29226
H          0.87518        2.22111        1.08595
H         -1.93765        2.25739       -2.05719
H         -0.54162        1.99619       -1.18401
C         -2.15412        2.51927        0.01789
C         -1.19746        2.27472        1.18187
N         -1.56699        1.87628       -1.19081
N          0.10671        2.84368        0.85942
