34
2msa1a1eda_01.log	Energy: -988718.6772308
S          2.91324       -0.43466        0.14466
O          2.74206       -0.32104       -1.31643
O          2.08486       -1.52175        0.73946
O          2.69085        0.86227        0.86007
H          1.10177        1.08725        1.19913
C          4.61520       -0.86057        0.46003
H          5.24386       -0.06548        0.05885
H          4.75146       -0.95727        1.53700
H          4.82345       -1.80599       -0.04124
S         -2.89968       -0.46022        0.10725
O         -3.07957        0.90679       -0.42739
O         -1.80002       -0.52455        1.12508
O         -2.71861       -1.50140       -0.93458
H         -0.92171       -1.87653       -1.03242
C         -4.39342       -0.87947        0.98594
H         -4.55560       -0.13119        1.76188
H         -5.21456       -0.87507        0.26894
H         -4.26598       -1.86999        1.42248
N          0.06294       -1.57680       -1.14298
H          0.65477       -1.75548       -0.30731
H          0.03751       -0.53185       -1.28925
H          0.51300       -2.00741       -1.94571
H         -1.34305        2.62471        0.47031
H          0.19766        3.41431        0.90459
H          0.08014        3.29879       -1.46835
H          1.35271        2.18656       -0.92705
H         -1.37284        1.27504       -1.58193
H         -0.08005        1.21783       -2.60765
H         -0.04082        1.59661        2.31700
H         -0.56119        0.55261        1.15246
C         -0.25438        2.52164        0.46692
C          0.27077        2.34790       -0.95120
N          0.08973        1.36213        1.33508
N         -0.35311        1.20914       -1.62954
