32
2msa1a1dma_169.log	Energy: -953946.3773796
S         -2.04840       -1.40275       -0.01617
O         -2.53736       -2.76453       -0.09625
O         -1.37830       -0.81456       -1.17520
O         -1.04999       -1.30360        1.23005
H         -0.18763       -0.90353        0.95017
C         -3.36561       -0.33510        0.50187
H         -4.12143       -0.37170       -0.28433
H         -3.76891       -0.73443        1.43297
H         -2.97743        0.68486        0.62888
S          1.96278        0.20467       -0.61132
O          1.55073        1.53050       -1.01615
O          1.37494       -0.36118        0.62365
O          3.52412        0.15867       -0.42653
H          3.78819       -0.25468        0.49495
C          1.68700       -0.93729       -1.94013
H          0.60588       -0.99675       -2.08266
H          2.19006       -0.54528       -2.82411
H          2.09548       -1.90547       -1.65073
N          4.04704       -0.86049        1.91115
H          4.56046       -0.24680        2.53588
H          4.49286       -1.77231        1.92781
H          3.09915       -0.96177        2.26815
N         -2.02550        2.67005        0.55666
C         -1.72831        2.70496       -0.87186
C         -0.82778        2.54423        1.37648
H         -2.52779        3.51091        0.81966
H         -1.30264        1.74433       -1.17498
H         -2.65576        2.85886       -1.43116
H         -1.00828        3.49135       -1.14922
H         -0.34975        1.58166        1.17548
H         -0.07630        3.32613        1.17866
H         -1.10174        2.57384        2.43513
