38
2msa1ma1tma_68.log	Energy: -1003282.2043804
S          1.46660       -1.18164       -0.78091
O          0.40415       -2.18065       -0.60823
O          2.31203       -0.92206        0.39833
O          0.91717        0.13148       -1.31940
C          2.53658       -1.78170       -2.07639
H          1.93483       -1.94781       -2.96997
H          3.30999       -1.03626       -2.26198
H          2.97830       -2.71708       -1.73173
S         -2.39470        0.51801       -0.48997
O         -3.63843        1.22069       -0.72665
O         -1.47755        1.03398        0.53354
O         -1.61054        0.47293       -1.87040
H         -0.63850        0.27339       -1.70777
C         -2.70861       -1.19289       -0.14258
H         -3.39698       -1.56273       -0.90241
H         -1.75686       -1.72605       -0.17123
H         -3.14775       -1.25909        0.85317
N         -0.81227       -2.88009        2.13638
H         -0.56515       -3.65604        2.74039
C         -0.40735       -1.61203        2.73342
H          0.67447       -1.51730        2.91670
H         -0.70281       -0.79691        2.06547
H         -0.93295       -1.46669        3.68301
H         -0.31812       -3.00625        1.25646
N          1.34424        2.06704        0.58554
C          2.78764        2.20999        0.26967
H          3.27008        1.25198        0.46367
H          2.89070        2.46472       -0.78549
H          3.21171        3.00019        0.89296
C          0.58144        3.29886        0.26300
H          0.72476        3.52957       -0.79325
H         -0.47292        3.10802        0.45750
H          0.95492        4.11862        0.88070
C          1.14084        1.63194        1.99257
H          0.07185        1.52194        2.16534
H          1.63588        0.66848        2.11708
H          1.56943        2.38540        2.65760
H          0.99305        1.30332       -0.04124
