40
2msa1dma1eda_410.log	Energy: -1038013.3057625
S         -2.55371       -0.11311       -1.06385
O         -3.23807       -0.85199       -2.11333
O         -1.07333       -0.45088       -0.97347
O         -3.14717       -0.24178        0.30075
H         -2.01774       -0.71606        1.36201
C         -2.61054        1.62547       -1.46409
H         -2.15010        1.76347       -2.44298
H         -3.66031        1.91867       -1.49311
H         -2.07220        2.18918       -0.69967
S          0.99450        1.76651        0.50714
O          0.91931        0.67697        1.50173
O          0.11740        2.90422        0.73870
O          0.77430        1.17703       -0.92831
H         -0.04038        0.50681       -0.96278
C          2.68491        2.27007        0.38383
H          2.96439        2.67904        1.35550
H          3.27374        1.37998        0.12564
H          2.74978        3.03635       -0.38904
N         -1.20804       -1.03230        1.96483
C         -0.86115       -2.41836        1.58744
C         -1.53221       -0.84186        3.39141
H         -0.41921       -0.40555        1.71333
H         -1.69548       -3.07643        1.83503
H         -0.68179       -2.43342        0.51238
H          0.03645       -2.72785        2.12587
H         -2.40784       -1.44104        3.64561
H         -0.68080       -1.14574        4.00275
H         -1.74619        0.21322        3.56135
H          4.15567       -2.68577       -0.88682
H          3.88310       -2.01939        0.73755
H          1.84154       -2.95572       -0.33829
H          1.67470       -1.25897        0.15708
H          0.90064       -1.93242       -2.15979
H          1.83146       -0.62133       -2.07258
H          5.19157       -0.49498       -0.49090
H          4.13314       -0.45585       -1.72168
C          3.67770       -1.86731       -0.32795
C          2.17170       -1.93333       -0.55601
N          4.20218       -0.55059       -0.71136
N          1.84605       -1.62956       -1.94854
