42
2msa2eda_169.log	Energy: -1072758.4804376
S         -1.76856       -1.89363        0.35481
O         -2.75326       -0.92089       -0.16680
O         -1.35624       -1.69232        1.74615
O         -0.59230       -1.94668       -0.60542
C         -2.51916       -3.50656        0.23443
H         -1.79634       -4.24441        0.58318
H         -3.40620       -3.50859        0.86859
H         -2.78618       -3.68463       -0.80703
S          2.59843       -0.77603       -0.27529
O          2.71074       -0.07879        1.00275
O          2.08947        0.02794       -1.39835
O          1.80127       -2.10069       -0.13850
H          0.74275       -2.01639       -0.27304
C          4.19573       -1.41169       -0.72025
H          4.87015       -0.55892       -0.80142
H          4.52333       -2.08901        0.06808
H          4.10534       -1.93093       -1.67367
H         -0.79064        2.99243       -1.39352
H         -1.20603        2.13094       -2.90062
H         -3.21012        3.11259       -1.82454
H         -3.32626        1.35661       -1.98305
H         -3.89046        2.49754        0.25666
H         -3.00587        1.12527        0.29105
H          0.26051        0.75520       -1.64132
H         -0.50138        1.01799       -0.18682
C         -1.32650        2.13849       -1.81322
C         -2.80614        2.16736       -1.44842
N         -0.67317        0.93040       -1.25707
N         -2.99488        2.10136       -0.00277
H         -1.22947        0.08063       -1.39076
H          2.10781        2.66058        1.90899
H          1.25284        4.18200        1.62288
H         -0.09625        2.62000        2.93287
H         -0.89021        3.02356        1.39441
H          0.71656        0.58453        1.68263
H         -0.89684        0.61132        1.90159
H          2.11340        3.67421       -0.42069
H          1.80444        2.08520       -0.32627
C          1.26982        3.11885        1.36124
C         -0.03834        2.50068        1.84137
N          1.42953        3.00151       -0.09183
N         -0.13186        1.09325        1.43597
