29
2msa1a1ma_51.log	Energy: -929303.6749224
S         -2.01970       -0.60967       -0.18559
O         -2.06779        0.32379       -1.35228
O         -2.10683        0.09980        1.10399
O         -0.84639       -1.53228       -0.26847
H          0.44885       -1.12771       -0.91855
C         -3.45068       -1.65704       -0.32865
H         -3.40175       -2.17045       -1.28868
H         -3.42596       -2.37118        0.49442
H         -4.33761       -1.02630       -0.26875
S          2.35428       -0.20817       -0.35308
O          3.59024        0.02385       -1.06831
O          1.35200       -0.89640       -1.34842
O          1.68749        0.96688        0.25117
H          0.44053        1.86165       -0.46984
C          2.58948       -1.40358        0.93578
H          2.91169       -2.33298        0.46639
H          3.36595       -1.01168        1.59393
H          1.65396       -1.50523        1.49382
N          0.38941       -0.09822        2.93720
H          0.19632        0.06469        3.91901
H         -0.49815       -0.12776        2.43759
H          0.91085        0.69513        2.57703
N         -0.42481        2.35572       -0.78330
H         -0.18399        2.97302       -1.55531
C         -1.03838        3.08359        0.35462
H         -1.92321        3.61505        0.00494
H         -1.33259        2.33901        1.09505
H         -0.31471        3.78317        0.77265
H         -1.08783        1.60167       -1.12439
