42
2msa2eda_568.log	Energy: -1072741.0048636
S          0.91018       -1.51760       -1.04116
O          1.13653       -0.21739       -1.67630
O         -0.15527       -2.34708       -1.58869
O          0.68995       -1.32403        0.51255
H         -0.22811       -0.88624        0.72254
C          2.44335       -2.40167       -1.00721
H          2.72853       -2.56189       -2.04786
H          3.18060       -1.78496       -0.47633
H          2.27507       -3.35340       -0.50315
S         -2.84996       -0.56686        0.80951
O         -3.75901       -0.24582        1.90295
O         -1.42748       -0.14677        1.09132
O         -3.26951       -0.01804       -0.52135
H         -2.60046        1.25964       -1.02622
C         -2.80659       -2.33427        0.59249
H         -2.47558       -2.77825        1.53204
H         -3.81894       -2.66005        0.35257
H         -2.11652       -2.56929       -0.22039
H         -1.69589        4.02364       -0.36957
H         -2.04768        2.66124        0.73165
H          0.46392        3.16393        0.42247
H         -0.02521        1.50320        0.08566
H          0.90329        3.43707       -1.84197
H          0.90395        1.77924       -1.88514
H         -3.09375        2.74044       -1.65781
H         -1.56351        2.19071       -2.08203
C         -1.58216        2.94777       -0.21288
C         -0.10670        2.53303       -0.26804
N         -2.27165        2.24208       -1.32674
N          0.36148        2.60485       -1.64861
H          4.98261        1.39621        1.68906
H          4.94110        1.20589       -0.07852
H          3.03266        2.52254        0.84737
H          2.52393        1.10725       -0.08903
H          1.64044        1.64019        2.38398
H          1.74433        0.12322        1.79651
H          5.40549       -0.89455        0.96571
H          4.03421       -0.80353        1.84403
C          4.44633        0.91637        0.85558
C          3.00789        1.42634        0.84397
N          4.45268       -0.54539        0.95292
N          2.28715        0.94938        2.02582
