40
2msa1dma1eda_510.log	Energy: -1038007.4434059
S          0.95739       -1.61249       -0.51839
O          1.24610       -0.37767       -1.25544
O         -0.01383       -2.52792       -1.10115
O          0.55823       -1.26435        0.96571
H         -0.40509       -0.88900        1.04078
C          2.48937       -2.45240       -0.21550
H          2.87326       -2.75359       -1.19135
H          3.17960       -1.75882        0.27940
H          2.28059       -3.32702        0.40029
S         -2.91902       -0.35525        0.38172
O         -4.10238        0.24543        0.99128
O         -1.69951       -0.22621        1.25441
O         -2.61946        0.15805       -0.99650
H         -2.00495        1.52772       -1.16334
C         -3.18789       -2.10057        0.16162
H         -3.36658       -2.53684        1.14484
H         -4.06134       -2.22426       -0.47884
H         -2.29734       -2.52481       -0.30665
N          4.31987        0.13965        0.88104
C          3.28897        0.82723        1.64444
C          4.49869        0.69390       -0.45294
H          5.19819        0.16597        1.38647
H          2.32008        0.66958        1.16352
H          3.22685        0.40331        2.64965
H          3.45943        1.91594        1.72816
H          3.59972        0.49542       -1.04567
H          4.67976        1.78374       -0.45431
H          5.34238        0.20411       -0.94672
H         -1.12004        4.11324        0.06361
H         -1.92450        2.71922        0.84520
H          0.61525        2.85355        1.27222
H          0.03256        1.33490        0.59728
H          1.76289        3.21762       -0.69532
H          1.43887        1.63358       -1.05695
H         -2.32890        3.12134       -1.66057
H         -0.75455        2.53962       -1.80995
C         -1.18445        3.02260        0.10211
C          0.18603        2.39292        0.37661
N         -1.61496        2.53570       -1.23554
N          1.02973        2.53019       -0.80828
