40
2msa1dma1eda_54.log	Energy: -1038034.2097407
S          2.62127       -0.90987       -0.29134
O          2.48899        0.16632       -1.31714
O          1.97177       -2.18442       -0.70809
O          2.17726       -0.45824        1.04564
C          4.36508       -1.26550       -0.18973
H          4.70250       -1.60275       -1.16982
H          4.88115       -0.35114        0.10339
H          4.50789       -2.04582        0.55797
S         -2.92543        0.37695       -0.06760
O         -2.73920        1.73052        0.47271
O         -3.26575       -0.68339        0.89467
O         -1.71382       -0.03713       -0.89396
C         -4.26381        0.46171       -1.24687
H         -4.38740       -0.51929       -1.70575
H         -5.16498        0.74673       -0.70307
H         -4.01709        1.21205       -1.99795
N         -0.58911       -2.27048        0.28536
C         -0.51475       -2.12018        1.75759
C         -1.44667       -3.38659       -0.15992
H         -0.97993       -1.39409       -0.12767
H         -0.19073       -3.06737        2.19270
H          0.22621       -1.35098        1.97717
H         -1.50125       -1.83549        2.12499
H         -1.05412       -4.32440        0.23656
H         -2.45898       -3.20984        0.20642
H         -1.44483       -3.41715       -1.24974
H          0.37821       -2.35779       -0.10348
H         -0.48155        2.67649        0.96801
H          0.56612        1.27676        1.30319
H          1.71887        3.34430        1.96107
H          2.58156        2.50599        0.68436
H          1.98868        4.16627       -0.85377
H          0.86199        4.85025        0.16283
H         -0.49464        1.11186       -0.82951
H          0.22770        2.54067       -1.32947
C          0.45685        2.18288        0.70544
C          1.67565        3.08096        0.89918
N          0.33880        1.73961       -0.71017
N          1.71105        4.30105        0.10927
H          1.18793        1.19126       -1.00139
