35
2msa1ma1dma_68.log	Energy: -978628.5597519
S         -2.32377       -0.46417       -0.37876
O         -3.60637       -0.15425       -0.97653
O         -1.31409        0.59478       -0.30089
O         -1.72718       -1.70634       -1.14254
C         -2.55507       -1.08756        1.27402
H         -2.92845       -0.26459        1.88500
H         -3.28267       -1.89800        1.23324
H         -1.58766       -1.44208        1.63511
S          1.59614       -1.41982        0.18903
O          1.68684       -0.49173        1.33500
O          1.76946       -0.74006       -1.12260
O          0.36811       -2.27207        0.22022
H         -0.83632       -1.95573       -0.72332
C          2.95064       -2.56946        0.34246
H          3.88261       -2.00415        0.32070
H          2.84032       -3.09276        1.29232
H          2.90269       -3.26904       -0.49198
N          0.34763        2.10783        1.77755
H          0.39036        1.08840        1.82461
C         -0.96685        2.61779        2.17415
H         -1.26762        2.31501        3.18578
H         -0.96465        3.71056        2.13140
H         -1.70802        2.25243        1.46070
H          1.06912        2.44334        2.40824
N          1.15333        1.92641       -0.88697
C          0.35678        2.62393       -1.91318
C          2.56686        2.33933       -0.81624
H          0.73314        2.06735        0.08105
H          0.80018        2.45244       -2.89588
H         -0.65545        2.22296       -1.88220
H          0.34679        3.69417       -1.69638
H          3.05686        2.13490       -1.76938
H          2.62423        3.40568       -0.58786
H          3.04761        1.75938       -0.02780
H          1.14388        0.89701       -1.05040
