40
2msa1dma1eda_300.log	Energy: -1038018.5977381
S         -1.46735       -1.94847        0.39184
O         -1.20381       -1.76096        1.81213
O         -0.20557       -2.48985       -0.36228
O         -2.01741       -0.79274       -0.32536
C         -2.55251       -3.33966        0.18415
H         -2.08139       -4.20886        0.64266
H         -3.48479       -3.09481        0.69378
H         -2.71848       -3.49688       -0.88093
S          2.61364       -0.20043       -0.63736
O          3.08489       -1.03438        0.46659
O          2.77585        1.25805       -0.46708
O          1.15824       -0.49271       -0.99607
H          0.43836       -1.71235       -0.60760
C          3.52820       -0.65768       -2.09980
H          4.58088       -0.44732       -1.90871
H          3.37766       -1.72273       -2.27761
H          3.16180       -0.06615       -2.93861
N         -2.47903        2.59607       -1.10551
C         -3.55680        2.17867       -0.20508
C         -2.48574        1.84755       -2.36546
H         -2.57072        3.58781       -1.30320
H         -3.39727        1.13126        0.06466
H         -3.53003        2.78387        0.70523
H         -4.55184        2.27476       -0.66443
H         -2.29099        0.79380       -2.14901
H         -3.44662        1.92494       -2.89525
H         -1.69254        2.22105       -3.01823
H         -0.87233        2.43416        2.01694
H         -1.15615        0.69601        1.70050
H          0.60256        1.08395        3.44432
H          1.24083        0.21760        2.05455
H          2.26835        2.54412        3.04719
H          2.54080        1.99094        1.52062
H         -0.96389        2.13251       -0.31487
H          0.67318        2.37408        0.13206
C         -0.43315        1.50937        1.63316
C          0.85422        1.18962        2.38529
N         -0.12809        1.73661        0.19654
N          1.82090        2.26916        2.18333
H          0.17246        0.86123       -0.27339
