32
2msa2ma_105.log	Energy: -953961.1378707
S         -2.37156       -0.30219       -0.52748
O         -3.39617       -1.17694       -1.05784
O         -1.38113        0.03111       -1.69983
O         -1.59616       -0.78325        0.63539
H         -0.39540       -1.95844        0.75486
C         -3.06604        1.26195       -0.07102
H         -3.54454        1.67827       -0.95788
H         -3.80547        1.06257        0.70604
H         -2.25768        1.90626        0.30607
S          2.08765        0.19573       -0.61120
O          1.97000       -1.25144       -0.96594
O          2.35540        0.42005        0.81625
O          0.91041        0.97949       -1.10930
H         -0.46895        0.38421       -1.40783
C          3.47785        0.80563       -1.54129
H          3.28328        0.63282       -2.59956
H          3.58115        1.87097       -1.33489
H          4.36462        0.26206       -1.21513
N         -0.38777        2.61228        1.17304
H          0.20169        2.19746        0.45344
C         -0.22993        1.87225        2.42517
H          0.81205        1.77415        2.75885
H         -0.80888        2.36128        3.21507
H         -0.63855        0.86643        2.28883
H         -0.08025        3.57205        1.28808
N          0.49818       -2.48305        0.88027
H          0.32626       -3.47400        0.72844
C          1.07149       -2.20467        2.21983
H          1.99787       -2.76615        2.33881
H          1.29249       -1.13775        2.26666
H          0.35261       -2.48680        2.98874
H          1.13834       -2.10993        0.12107
