29
2msa1a1ma_39.log	Energy: -929306.6654882
S         -1.56489       -1.25137        0.00451
O         -0.15665       -1.74298        0.13688
O         -1.80671       -0.52201       -1.25389
O         -1.98952       -0.49515        1.21562
H         -1.01611        0.90437        1.53576
C         -2.56303       -2.72627       -0.02394
H         -2.38698       -3.27305        0.90215
H         -3.60761       -2.42517       -0.10515
H         -2.26379       -3.31905       -0.88840
S          2.70614        0.12088        0.04212
O          3.14514       -0.56234        1.24543
O          1.95968        1.37884        0.23089
O          1.91507       -0.82526       -0.91995
H          1.03656       -1.19065       -0.50222
C          4.10214        0.48349       -0.99358
H          4.74208        1.16320       -0.43051
H          4.62085       -0.45168       -1.20258
H          3.74407        0.95143       -1.90975
N         -0.54739        1.82114        1.35803
H         -0.56022        2.40927        2.18499
H         -1.10101        2.24540        0.53997
H          0.42740        1.65040        1.04841
N         -2.14874        2.38471       -0.79684
H         -2.03290        3.12523       -1.48061
C         -3.52910        2.33601       -0.29849
H         -4.27246        2.18532       -1.09000
H         -3.60905        1.50451        0.40694
H         -3.76591        3.26496        0.22859
H         -1.93798        1.49424       -1.25590
