38
2msa2dma_27.log	Energy: -1003291.8411751
S         -2.18505       -0.64821       -0.52789
O         -1.17009       -1.70519       -0.72627
O         -2.06855        0.48807       -1.46354
O         -2.23891       -0.18115        0.89992
H         -1.53797        1.35165        0.93959
C         -3.77283       -1.41028       -0.82947
H         -3.77733       -1.78610       -1.85306
H         -3.90363       -2.22655       -0.11867
H         -4.54666       -0.65426       -0.69460
S          2.31951        0.64293       -0.62651
O          3.35554        1.64904       -0.83461
O          1.41530        0.92292        0.54052
O          2.83851       -0.76166       -0.49861
H          2.04207       -1.61915        0.48485
C          1.26990        0.61861       -2.06909
H          0.83643        1.61088       -2.20065
H          1.89694        0.36538       -2.92477
H          0.48116       -0.12097       -1.92228
N         -0.87982        2.17083        0.94525
C         -0.73038        2.68470        2.31796
C         -1.29869        3.18010       -0.04683
H          0.04019        1.74334        0.65720
H         -1.68242        3.09068        2.66503
H         -0.42340        1.86316        2.96540
H          0.03497        3.46229        2.33224
H         -2.23366        3.64074        0.27810
H         -0.52066        3.94100       -0.13517
H         -1.45678        2.66724       -0.99563
N          1.64838       -2.33745        1.18893
C          1.12576       -3.50316        0.43528
C          0.64951       -1.70264        2.08373
H          2.46064       -2.62066        1.73560
H          0.26641       -3.16239       -0.14364
H          1.91056       -3.86691       -0.22851
H          0.82677       -4.28555        1.13593
H         -0.20874       -1.39874        1.48402
H          0.34293       -2.42169        2.84677
H          1.10693       -0.82280        2.53472
