42
2msa2eda_534.log	Energy: -1072745.3199701
S          0.93952       -2.17960        0.42970
O          0.51079       -3.43559       -0.17088
O          0.48951       -0.95544       -0.34853
O          2.41785       -2.05095        0.64165
H          3.02601       -0.74920        0.09952
C          0.18846       -2.01696        2.03366
H         -0.89223       -1.97388        1.88748
H          0.47696       -2.88727        2.62408
H          0.55368       -1.08744        2.47649
S         -2.77750       -0.12460       -0.50816
O         -2.72398        1.31639       -0.75460
O         -2.63332       -0.56906        0.87419
O         -1.75817       -0.87103       -1.43736
H         -0.82581       -0.96081       -0.98589
C         -4.30233       -0.74814       -1.17334
H         -5.11055       -0.25833       -0.62940
H         -4.34447       -0.50020       -2.23361
H         -4.32675       -1.82649       -1.01953
H          4.21280        0.63143       -2.25468
H          3.04225       -0.71354       -2.21379
H          2.06640        1.56993       -2.94193
H          1.22990        0.76162       -1.60984
H          2.88107        3.13646       -1.39794
H          1.48281        2.71035       -0.60045
H          4.56955       -0.12708       -0.14137
H          3.32699        0.97803        0.09487
C          3.30578        0.25076       -1.77710
C          2.15686        1.26370       -1.89339
N          3.58890        0.06526       -0.32794
N          2.38490        2.36642       -0.96366
H         -1.08195        1.18045        1.87357
H         -0.38317        2.04373        3.23614
H         -1.50875        3.60441        1.76073
H          0.22633        3.94902        1.81751
H         -1.08871        2.47266       -0.35200
H         -0.58441        4.01335       -0.42621
H          0.95898        0.83337        0.94423
H          1.73689        1.93003        1.88087
C         -0.28998        1.88304        2.15522
C         -0.51979        3.22670        1.45882
N          0.99165        1.23952        1.87607
N         -0.37854        3.11558        0.00231
