42
2msa2eda_379.log	Energy: -1072752.8528699
S          2.95707       -0.71945       -0.50809
O          2.67700       -2.06871        0.05119
O          3.47757        0.25766        0.45510
O          1.73586       -0.21242       -1.23644
H          1.15267        1.11413       -0.92170
C          4.19919       -0.94963       -1.76494
H          5.09425       -1.34150       -1.28140
H          3.81807       -1.65553       -2.50272
H          4.40072        0.01941       -2.22176
S          0.13544        2.09290        0.74829
O         -0.86354        3.14130        0.79827
O          0.67229        2.00728       -0.72345
O         -0.27312        0.74775        1.19347
H         -0.07489       -0.88182        0.53712
C          1.56299        2.55925        1.69426
H          1.89149        3.53518        1.33631
H          1.25615        2.61316        2.73944
H          2.33346        1.79963        1.53554
H         -3.91852        1.75733       -0.46928
H         -2.84321        0.82690        0.57434
H         -1.73516        1.26527       -1.54270
H         -2.05057       -0.47058       -1.38602
H         -3.57624        1.38447       -3.05416
H         -2.78040        0.03771       -3.51332
H         -5.14101       -0.08460        0.45691
H         -4.87687       -0.42440       -1.12575
C         -3.44470        0.77188       -0.33760
C         -2.52703        0.50652       -1.52272
N         -4.42272       -0.31656       -0.22089
N         -3.31667        0.44853       -2.75776
H         -0.36798       -3.58215        1.69156
H         -0.13379       -2.05223        2.56898
H         -2.57412       -2.78820        2.52080
H         -2.30245       -1.20724        1.78631
H         -2.99457       -3.64157        0.38220
H         -3.39028       -2.05265        0.07602
H          0.97687       -2.15324        0.31036
H         -0.62084       -2.21355       -0.30686
C         -0.60388       -2.51470        1.69967
C         -2.11511       -2.27915        1.66391
N         -0.02679       -1.91537        0.47695
N         -2.64238       -2.69189        0.36828
