42
2msa2eda_367.log	Energy: -1072752.5347226
S          2.98505       -0.91454       -0.48546
O          1.91565       -1.79338       -0.98252
O          3.08181       -0.77406        0.96230
O          2.89552        0.48408       -1.18034
H          1.98153        0.94635       -0.93898
C          4.52978       -1.48904       -1.14186
H          4.70941       -2.47320       -0.70848
H          4.44324       -1.55014       -2.22608
H          5.30806       -0.78704       -0.84418
S          0.28858        2.06978        0.72705
O         -0.43055        3.32558        0.55604
O          0.69140        1.45020       -0.60412
O         -0.41822        1.03899        1.53734
H         -0.56108       -0.42320        0.70950
C          1.82490        2.40175        1.56928
H          2.39723        3.10833        0.96718
H          1.57730        2.83942        2.53673
H          2.36396        1.46081        1.69393
H         -4.48805        1.09464       -2.39049
H         -4.92220        1.47159       -0.71896
H         -2.66874        2.28271       -1.24320
H         -2.63009        1.07541        0.03623
H         -2.09725        0.41143       -2.77544
H         -0.95103        0.72523       -1.66261
H         -5.50396       -0.78356       -1.16582
H         -3.98281       -1.15462       -1.63358
C         -4.26733        0.84995       -1.33697
C         -2.82409        1.21674       -1.03240
N         -4.52655       -0.55495       -1.01950
N         -1.89545        0.35325       -1.78005
H         -0.80696       -3.38601        0.64129
H         -0.01498       -2.38544        1.88716
H         -2.20654       -3.06203        2.67918
H         -2.22865       -1.32250        2.39434
H         -4.06268       -2.99542        1.42631
H         -3.65872       -1.67249        0.55317
H          0.23888       -1.47714       -0.31357
H         -1.39294       -1.21903       -0.49717
C         -0.84753       -2.43795        1.18101
C         -2.18632       -2.30107        1.89313
N         -0.64317       -1.34005        0.20600
N         -3.28946       -2.52989        0.96858
