34
2msa1a1eda_66.log	Energy: -988705.5147302
S          2.30246       -0.63865       -0.31059
O          1.56006        0.40264       -1.07328
O          1.48917       -1.89051       -0.16600
O          2.85632       -0.15390        0.96410
C          3.68541       -1.10900       -1.33296
H          3.29875       -1.47254       -2.28505
H          4.31377       -0.23017       -1.47847
H          4.23476       -1.89437       -0.81349
S         -1.89430       -1.34972        0.25568
O         -3.10181       -0.88612       -0.41657
O         -1.21131       -0.42266        1.15730
O         -0.91064       -1.86637       -0.84206
H          0.09057       -1.84675       -0.54736
C         -2.28947       -2.81758        1.17956
H         -3.00285       -2.53546        1.95430
H         -2.72721       -3.54297        0.49401
H         -1.36818       -3.19940        1.62044
N          1.99306        2.44028        2.19154
H          2.40490        1.55325        1.88232
H          1.76849        2.34381        3.17683
H          2.70933        3.15493        2.11388
H         -0.85328        3.97855       -0.10648
H          0.21648        3.28348       -1.35056
H         -2.15821        3.19068       -2.11248
H         -1.52544        1.56435       -1.86428
H         -3.57793        2.86210       -0.31808
H         -3.23337        1.24794       -0.46675
H          0.57542        2.42955        1.04790
H         -0.90082        1.62409        0.79630
C         -0.58935        3.06505       -0.64589
C         -1.81919        2.48370       -1.34548
N         -0.09940        2.06838        0.32803
N         -2.83678        2.17529       -0.34990
H          0.42724        1.31759       -0.17133
