43
2msa1eda1tma_168.log	Energy: -1062676.8265617
S         -2.26745       -0.94673        0.12947
O         -1.16841       -1.58826        0.85341
O         -2.15071       -0.82543       -1.31863
O         -2.59449        0.44281        0.77879
H         -1.96531        1.21740        0.44622
C         -3.76825       -1.81702        0.51811
H         -3.65395       -2.82890        0.12786
H         -3.89412       -1.83267        1.60033
H         -4.59898       -1.30659        0.03180
S          0.06405        2.13578       -0.80050
O          1.02477        3.23175       -0.71010
O         -1.12127        2.32912        0.10931
O          0.66193        0.78322       -0.55862
H          0.94964        0.19239        0.98634
C         -0.59320        2.05337       -2.45229
H         -1.08032        3.00449       -2.66826
H          0.23717        1.87736       -3.13672
H         -1.30269        1.22439       -2.48307
H          1.20762       -2.69412       -0.24502
H          1.57426       -3.67755       -1.66946
H          3.64386       -2.92763       -0.70672
H          3.40330       -2.17636       -2.29932
H          4.13120       -0.53926       -0.74408
H          2.55916       -0.21123       -1.00639
H         -0.11349       -2.25917       -2.33483
H          0.54737       -0.94027       -1.69300
C          1.59117       -2.65398       -1.27854
C          3.04394       -2.19415       -1.26006
N          0.78050       -1.81555       -2.15622
N          3.19198       -0.89387       -0.59076
N          1.26435        0.17819        1.98784
C          2.42786        1.10019        2.02937
H          3.20980        0.67354        1.40163
H          2.12183        2.06732        1.62698
H          2.76704        1.20019        3.06291
C          0.13275        0.68784        2.80205
H         -0.17524        1.65621        2.40443
H         -0.69360       -0.01653        2.71816
H          0.45910        0.78291        3.84021
C          1.64278       -1.20888        2.35302
H          0.76443       -1.84262        2.23380
H          2.42956       -1.52221        1.66461
H          1.99198       -1.21725        3.38882
