41
2msa1dma1tma_57.log	Energy: -1027940.8348414
S         -1.43785        2.06471       -0.15352
O         -2.56337        1.49834        0.61559
O         -1.41389        1.72899       -1.57177
O         -0.09011        1.71463        0.53982
H          0.02433        0.64607        0.60943
C         -1.46102        3.82628        0.05326
H         -2.38078        4.19000       -0.40531
H         -1.44150        4.04794        1.11974
H         -0.58783        4.23823       -0.45196
S          0.42540       -1.69763       -0.36878
O          1.42955       -2.64412        0.10093
O          0.00378       -0.71696        0.71955
O         -0.81342       -2.31701       -0.93016
H         -2.11193       -1.66131       -0.23002
C          1.13719       -0.70050       -1.65789
H          2.01270       -0.19254       -1.23421
H          1.42761       -1.37760       -2.46224
H          0.38516        0.01207       -2.00217
N         -2.93227       -1.27395        0.31722
C         -2.92079       -1.90973        1.65167
C         -4.17585       -1.46899       -0.45206
H         -2.75787       -0.25790        0.43020
H         -3.05972       -2.98516        1.53270
H         -1.94980       -1.71222        2.10586
H         -3.72142       -1.49026        2.26329
H         -4.33407       -2.53630       -0.61279
H         -5.01777       -1.04432        0.09717
H         -4.07103       -0.96502       -1.41288
N          3.73419        0.33277        0.14032
C          3.13292        0.49774        1.45405
H          2.54571        1.42090        1.47837
H          2.46072       -0.33878        1.66094
H          3.89416        0.54614        2.25688
C          4.44554       -0.93260        0.04640
H          3.75102       -1.75544        0.23599
H          4.85533       -1.05193       -0.96180
H          5.28260       -0.99624        0.76828
C          4.59248        1.45414       -0.19049
H          4.99937        1.32792       -1.19862
H          4.01560        2.38395       -0.16698
H          5.44211        1.55775        0.51288
