40
2msa1dma1eda_574.log	Energy: -1038003.4091099
S          2.10517       -0.97220       -0.72937
O          1.52409       -1.39208        0.58748
O          3.55700       -1.13273       -0.79118
O          1.66075        0.44517       -1.02225
H          1.83523        1.27652        0.25061
C          1.34481       -1.97267       -1.98384
H          1.63065       -3.00727       -1.79165
H          0.26206       -1.84981       -1.91055
H          1.72554       -1.64070       -2.95001
S         -1.99787       -1.66692        0.47265
O         -2.06505       -2.97465        1.10311
O         -1.76837       -1.60067       -0.96700
O         -0.89813       -0.76568        1.20732
H          0.03307       -1.06442        0.93815
C         -3.44204       -0.72683        0.88845
H         -4.28890       -1.28841        0.49058
H         -3.50789       -0.66610        1.97499
H         -3.38043        0.26030        0.41407
N          2.12600        1.80563        1.15092
C          3.59228        1.62031        1.29232
C          1.34669        1.30461        2.30954
H          1.91168        2.78932        0.99240
H          3.79316        0.55032        1.35891
H          4.08141        2.01058        0.40036
H          3.94553        2.13642        2.18655
H          1.55349        0.23967        2.41513
H          1.64049        1.84852        3.20916
H          0.28450        1.43868        2.10655
H         -2.34257        4.05341       -0.83247
H         -2.53640        3.28843        0.75332
H         -0.22517        3.12610        0.05273
H         -0.94505        1.49600        0.07591
H         -0.36447        3.03686       -2.33634
H          0.08165        1.49845       -1.93242
H         -4.23378        2.60133       -0.94991
H         -3.01700        1.79927       -1.71269
C         -2.33847        3.08332       -0.30602
C         -0.95356        2.45777       -0.44865
N         -3.33745        2.14858       -0.81146
N         -0.65059        2.19701       -1.84611
