42
2msa2eda_237.log	Energy: -1072756.2799815
S         -0.19863       -2.00286       -0.61235
O         -1.42517       -2.79765       -0.58393
O          0.27104       -1.67938        0.80276
O         -0.25049       -0.76011       -1.42084
H         -0.80839        0.67309       -0.39644
C          1.10888       -2.98830       -1.31016
H          1.21211       -3.89031       -0.70673
H          0.82368       -3.23818       -2.33253
H          2.02040       -2.38768       -1.29624
S          2.82738        0.62315        0.24637
O          2.18399        1.85516       -0.23609
O          3.21690       -0.36952       -0.74473
O          1.94130       -0.01066        1.36042
H          1.24401       -0.77794        1.02512
C          4.25717        1.10348        1.18726
H          4.94061        1.59926        0.49720
H          3.94097        1.78735        1.97436
H          4.71050        0.20438        1.60332
H         -2.90236       -1.17665        2.81874
H         -3.23562        0.41168        3.51147
H         -4.65640       -0.08195        1.55210
H         -3.68022        1.37606        1.34599
H         -2.93874       -1.21992        0.14521
H         -3.42167        0.13933       -0.65011
H         -0.96503        0.40154        3.40687
H         -0.89332       -0.45272        2.02286
C         -2.80753       -0.09569        2.64089
C         -3.62548        0.28090        1.40705
N         -1.39819        0.29946        2.49524
N         -2.98243       -0.20522        0.19806
H         -0.38138        2.50022       -2.45394
H         -1.90614        3.38955       -2.54710
H         -1.09278        3.61177       -0.29568
H         -2.50643        2.52829       -0.26215
H          0.34816        1.79937       -0.01432
H         -0.93360        1.41977        1.05122
H         -2.36874        1.38039       -3.56164
H         -1.65369        0.46851       -2.41009
C         -1.43327        2.49677       -2.12634
C         -1.47764        2.63826       -0.60925
N         -2.18518        1.32455       -2.56655
N         -0.66126        1.59478        0.05479
