42
2msa2eda_540.log	Energy: -1072744.7868444
S         -1.01823       -2.30861       -0.46971
O         -1.50178       -3.68248       -0.46279
O         -0.04061       -2.00425        0.63834
O         -2.10434       -1.27261       -0.44930
H         -2.42828       -0.58093        0.91100
C         -0.12724       -2.03127       -1.98976
H          0.63525       -2.80677       -2.07257
H         -0.84084       -2.10783       -2.81033
H          0.33060       -1.04136       -1.95519
S          2.65347        0.06864        0.23388
O          2.66990        0.67108        1.55959
O          1.77031        0.68106       -0.76399
O          2.37946       -1.47511        0.31145
H          1.37440       -1.69616        0.45092
C          4.31181        0.02842       -0.40296
H          4.64398        1.06352       -0.48749
H          4.93533       -0.52010        0.30257
H          4.29925       -0.45689       -1.37816
H         -1.58612        0.27520        3.65082
H         -0.79544       -0.90267        2.54919
H          0.36289        1.35334        2.48777
H         -0.29182        0.85863        0.93595
H         -1.42220        2.91561        2.66174
H         -1.11673        2.91415        1.03476
H         -3.33309       -0.61111        2.34851
H         -2.91624        0.87784        1.67003
C         -1.33920        0.04019        2.61159
C         -0.57121        1.17667        1.94576
N         -2.61341       -0.09496        1.84938
N         -1.44527        2.34433        1.82340
H         -0.69105        0.89963       -1.66985
H         -1.57645        1.41245       -3.11278
H          0.16329        2.98257       -2.81810
H         -1.31920        3.80537       -2.29090
H          0.70130        2.59818       -0.54516
H          0.33727        4.18701       -0.66526
H         -3.02631        0.82384       -1.27624
H         -2.46657        2.09148       -0.40762
C         -1.36332        1.67409       -2.07030
C         -0.61822        3.00099       -2.04462
N         -2.63272        1.75688       -1.35244
N         -0.06234        3.25495       -0.70676
