42
2msa2eda_40.log	Energy: -1072769.8847068
S         -2.48939       -1.60100       -0.03647
O         -1.47695       -1.09197       -1.02798
O         -3.49577       -0.58505        0.30012
O         -1.80081       -2.21250        1.13358
C         -3.34302       -2.93407       -0.86089
H         -3.83894       -2.52620       -1.74171
H         -2.61438       -3.69336       -1.14490
H         -4.07383       -3.34327       -0.16283
S          2.15966        1.41703       -0.22343
O          2.56512        0.33087       -1.14275
O          1.55133        0.88188        1.03067
O          1.29719        2.44685       -0.86376
C          3.64545        2.27381        0.26607
H          3.37020        3.06828        0.95967
H          4.30680        1.55458        0.75060
H          4.10974        2.68594       -0.63003
H          1.87847       -3.14837        1.70919
H          0.90826       -3.83069        0.38204
H          3.28523       -4.03584       -0.11578
H          2.52859       -2.93968       -1.27445
H          4.73710       -2.29968       -0.05363
H          3.58954       -1.14536       -0.25901
H         -0.08558       -1.84473        1.02389
H          1.33561       -0.91591        0.90584
C          1.59683       -3.02883        0.66138
C          2.83655       -3.04288       -0.22123
N          0.84011       -1.75795        0.55118
N          3.79454       -2.03194        0.20156
H          0.58191       -1.54253       -0.41873
H         -2.45877        1.40370        0.96407
H         -0.70083        1.58669        1.22565
H         -1.92739        3.67814        1.88911
H         -0.80128        3.95660        0.55205
H         -3.71154        3.69419        0.28498
H         -2.75048        4.91928       -0.22372
H         -1.42429        0.64863       -0.97312
H         -2.00116        2.21386       -1.31164
C         -1.56383        1.95577        0.66766
C         -1.73581        3.45916        0.83052
N         -1.32351        1.66754       -0.77143
N         -2.79002        3.91811       -0.07678
H         -0.35299        1.97068       -1.01093
