32
2msa2ma_07.log	Energy: -953980.0261190
S         -2.61709        0.10038       -0.14678
O         -2.44743       -1.08689       -1.02551
O         -2.25278        1.38470       -0.80893
O         -1.91006       -0.05667        1.15214
C         -4.36281        0.20377        0.19857
H         -4.88565        0.32779       -0.74981
H         -4.66947       -0.72006        0.68969
H         -4.53397        1.06157        0.84920
S          2.58604       -0.07727       -0.20829
O          2.63879        1.14010       -1.02727
O          2.32054       -1.33631       -0.95559
O          1.62264        0.05875        0.94229
C          4.19553       -0.28723        0.53404
H          4.91738       -0.43457       -0.26978
H          4.43227        0.61433        1.09945
H          4.16697       -1.15809        1.18904
N         -0.05029        2.18455        0.61167
H         -0.51770        2.33003        1.50459
H          0.59583        1.36358        0.73933
C          0.68454        3.37974        0.14387
H          1.22706        3.10429       -0.75955
H         -0.02295        4.18464       -0.05615
H          1.40056        3.68593        0.90652
H         -0.81056        1.90079       -0.05209
N         -0.12158       -2.11877        0.00939
H         -0.13890       -1.42616        0.76831
H         -0.93772       -1.85975       -0.58529
C         -0.23266       -3.49536        0.52334
H         -0.20778       -4.19332       -0.31318
H          0.60222       -3.69957        1.19370
H         -1.17546       -3.60094        1.05995
H          0.77658       -1.94570       -0.49638
