26
2msa2a_31.log	Energy: -904645.7230627
S          1.58764        0.90337        0.10183
O          1.01042        0.15909       -1.07286
O          3.05425        0.85949        0.10628
O          0.96498        0.40106        1.37024
H          0.90091       -1.29589        1.29764
C          1.05689        2.59080       -0.06863
H          1.39591        3.14190        0.80869
H          1.50945        2.99071       -0.97614
H         -0.03177        2.58964       -0.14808
S         -2.41842       -0.04225       -0.22759
O         -3.64842       -0.70937       -0.59887
O         -2.14053        1.31468       -0.67285
O         -1.21091       -0.98224       -0.70048
H         -0.37282       -0.42550       -0.91257
C         -2.25684       -0.08523        1.54689
H         -3.03215        0.56769        1.95011
H         -2.41829       -1.10970        1.88467
H         -1.26046        0.27981        1.80512
N          0.84825       -2.26535        0.88990
H          0.84326       -2.98385        1.60740
H          1.70833       -2.35041        0.23891
H         -0.01560       -2.28839        0.33740
N          3.03276       -2.08436       -0.77232
H          2.63935       -1.84731       -1.68011
H          3.77527       -2.76123       -0.91479
H          3.44546       -1.21255       -0.43050
