34
2msa1a1eda_205.log	Energy: -988700.7396341
S         -2.15413       -1.05825       -0.08628
O         -2.34456        0.28124       -0.64412
O         -1.92843       -1.11760        1.36609
O         -1.04413       -1.82801       -0.84527
H         -0.07056       -1.73147       -0.39738
C         -3.57915       -2.03786       -0.48336
H         -3.68151       -2.06169       -1.56808
H         -3.43054       -3.03823       -0.07832
H         -4.44101       -1.55335       -0.02398
S          2.28712       -0.78701       -0.06374
O          2.22722       -0.26782       -1.42839
O          1.10721       -1.66689        0.29376
O          2.46692        0.23753        1.00097
H          1.01905        0.55833        1.82246
C          3.69752       -1.86956        0.04917
H          3.58577       -2.64691       -0.70682
H          4.58948       -1.27281       -0.14310
H          3.72741       -2.30084        1.04950
N          0.07165        0.73470        2.23760
H          0.15218        0.88496        3.23887
H         -0.53214       -0.08284        2.05276
H         -0.38992        1.57844        1.75666
H         -0.92129        4.22426       -0.70413
H          0.17699        4.27903        0.69217
H          1.39407        3.50158       -1.21780
H          1.25725        2.17413       -0.07151
H          0.77799        1.47869       -2.31126
H         -0.61446        1.37048       -1.50605
H         -1.89271        3.30786        1.32357
H         -1.78554        2.13543        0.20042
C         -0.34567        3.60994        0.00024
C          0.68162        2.79723       -0.77419
N         -1.22793        2.73987        0.80617
N          0.06369        2.04156       -1.85849
