42
2msa2eda_273.log	Energy: -1072756.0309167
S         -0.33637       -1.96536       -0.98425
O          0.62903       -2.14923        0.10999
O          0.16568       -1.04543       -2.05379
O         -1.68717       -1.55298       -0.50285
C         -0.56338       -3.54068       -1.78612
H          0.40429       -3.86505       -2.16931
H         -0.94179       -4.24538       -1.04542
H         -1.27803       -3.41294       -2.59927
S          2.34566        0.99203       -0.20227
O          3.11356        0.12260        0.67084
O          1.03174        1.44810        0.27027
O          2.20531        0.39358       -1.64707
H          1.38041       -0.21365       -1.76500
C          3.32592        2.42475       -0.58812
H          3.52729        2.93260        0.35556
H          4.25415        2.08768       -1.04890
H          2.75895        3.06395       -1.26377
H         -1.28640        0.38073        3.68535
H         -2.39999       -0.80738        2.95679
H         -0.42702       -1.88302        4.11352
H         -0.50367       -2.28106        2.39055
H          1.64367       -1.08828        3.65311
H          1.41315       -1.16164        2.02635
H         -1.80039        1.10808        1.44688
H         -0.21559        0.53902        1.48364
C         -1.38959       -0.39143        2.91879
C         -0.32010       -1.46997        3.10505
N         -1.20106        0.25387        1.60197
N          0.99474       -0.87831        2.90820
H         -1.41754       -0.41295        0.83300
H         -2.84917        3.70237       -0.92160
H         -1.25769        3.46959       -0.16609
H         -1.53149        2.21168       -2.32616
H         -1.08692        1.20677       -0.96904
H         -3.57100        1.14222       -2.40677
H         -2.82380       -0.02056       -1.50811
H         -3.10758        3.20052        1.41327
H         -3.64888        1.93264        0.51059
C         -2.19636        2.96921       -0.42443
C         -1.90420        1.80656       -1.37642
N         -2.81602        2.44436        0.80285
N         -3.08661        0.96059       -1.53681
