40
2msa1dma1eda_65.log	Energy: -1038033.7741801
S         -0.90764       -2.14074       -0.35489
O          0.44089       -2.56037        0.11645
O         -0.86416       -1.12823       -1.42920
O         -1.80234       -1.73742        0.77107
H         -1.78518       -0.06281        1.02654
C         -1.63871       -3.61658       -1.04223
H         -1.01128       -3.94976       -1.86917
H         -1.68114       -4.37390       -0.25953
H         -2.64002       -3.36936       -1.39549
S          1.65105        2.08578       -0.37945
O          1.83865        3.52652       -0.23934
O          0.83041        1.46443        0.71961
O          2.91053        1.29624       -0.54480
H          2.73518       -0.15598        0.15233
C          0.72327        1.80246       -1.88283
H         -0.16783        2.43209       -1.85871
H          1.35668        2.09255       -2.72188
H          0.44833        0.74648       -1.93613
N          2.64516       -1.08134        0.65522
C          2.66594       -0.82317        2.10889
C          3.69961       -1.99825        0.18463
H          1.71993       -1.49705        0.40399
H          3.64151       -0.42081        2.38729
H          1.89391       -0.08501        2.32445
H          2.47194       -1.75465        2.64361
H          4.67784       -1.56194        0.39297
H          3.59769       -2.95953        0.69100
H          3.58232       -2.13965       -0.88965
H         -2.34424        2.44337       -0.43740
H         -2.16059        0.78928       -1.08813
H         -4.58411        1.40819       -0.89505
H         -4.16099        0.05581        0.16335
H         -4.61210        2.81803        1.02943
H         -5.26280        1.43876        1.62103
H         -0.75732        1.27308        0.88023
H         -2.22188        1.39196        1.77191
C         -2.53599        1.38213       -0.25140
C         -4.01599        1.12863        0.00207
N         -1.76973        0.98307        0.95078
N         -4.42555        1.83820        1.21506
