41
2msa1dma1tma_60.log	Energy: -1027940.9312457
S         -3.19816       -0.67255       -0.52205
O         -4.61801       -0.97290       -0.41865
O         -2.51210       -0.56605        0.82730
O         -2.86580        0.55060       -1.31627
H         -1.92436        1.53090       -0.46801
C         -2.39393       -2.02846       -1.35733
H         -2.58118       -2.93784       -0.78494
H         -2.83816       -2.10859       -2.34992
H         -1.32500       -1.81802       -1.42375
S          0.77579       -0.73915        0.86160
O          0.68748        0.66464        1.30913
O          0.79393       -0.93184       -0.58626
O         -0.36661       -1.57711        1.51957
H         -1.30795       -1.20211        1.22482
C          2.20714       -1.46940        1.59504
H          3.06659       -0.95745        1.14055
H          2.15641       -1.31259        2.67213
H          2.20503       -2.53157        1.34959
N         -1.36301        2.18189        0.15470
C         -2.25607        2.65859        1.23253
C         -0.75693        3.24782       -0.66465
H         -0.61121        1.60442        0.57615
H         -3.07638        3.22490        0.78912
H         -2.65096        1.78186        1.74614
H         -1.69068        3.28717        1.92261
H         -1.54813        3.81688       -1.15496
H         -0.16165        3.90587       -0.02920
H         -0.11817        2.78695       -1.41837
N          4.27281        0.05816       -0.44581
C          3.57053        1.26583       -0.85127
H          2.52665        1.02469       -1.06818
H          3.59315        1.99779       -0.03844
H          4.02018        1.72817       -1.75072
C          5.65815        0.34032       -0.11258
H          5.70316        1.08715        0.68566
H          6.14853       -0.57110        0.24259
H          6.23017        0.72509       -0.97828
C          4.17076       -0.97230       -1.46845
H          4.65927       -1.88767       -1.11928
H          3.11689       -1.19213       -1.65961
H          4.64827       -0.66914       -2.41901
