42
2msa2eda_172.log	Energy: -1072759.0152263
S         -2.25237       -0.44008        0.86049
O         -2.42637       -1.56448       -0.06564
O         -2.53553        0.89798        0.28115
O         -0.88823       -0.44746        1.51192
C         -3.41677       -0.65793        2.19263
H         -3.22852       -1.62782        2.65326
H         -3.27875        0.14858        2.91274
H         -4.41788       -0.62380        1.76232
S          1.21611       -2.05197       -0.81276
O          2.53854       -2.61661       -0.99200
O          0.97764       -0.69704       -1.33318
O          0.90389       -2.07467        0.73233
H          0.13750       -1.45245        1.00237
C         -0.01190       -3.12828       -1.50619
H          0.15412       -3.15327       -2.58382
H          0.12974       -4.11626       -1.06817
H         -0.99297       -2.71619       -1.25756
H         -0.20201        3.77172       -1.13664
H          1.25608        2.91100       -1.67793
H         -0.34245        3.08172       -3.54574
H         -0.15429        1.39814       -3.07962
H         -2.28641        1.48847       -1.99102
H         -2.44707        3.08620       -2.33507
H          0.51445        2.08423        0.48662
H         -0.97599        1.65830       -0.17095
C          0.18350        2.81121       -1.49297
C         -0.56461        2.35996       -2.75208
N          0.01951        1.82819       -0.40424
N         -2.00426        2.22405       -2.63242
H          0.41497        0.91738       -0.68235
H          2.38968       -0.15370        1.31831
H          4.01099        0.44014        1.63759
H          2.67387        1.24874        3.40373
H          2.97379        2.65053        2.36739
H          0.47579        1.08629        2.38031
H          0.68358        2.62517        2.89892
H          3.75610        1.98053       -0.12234
H          2.99071        0.65602       -0.70544
C          2.99946        0.75528        1.34261
C          2.45241        1.68753        2.41997
N          2.95611        1.37160        0.01468
N          1.01909        1.93827        2.23182
