29
2msa1a1ma_124.log	Energy: -929294.0450491
S          2.47539        0.07827       -0.16600
O          2.57268       -0.68039        1.08818
O          1.93328        1.43584       -0.01530
O          1.69291       -0.71661       -1.24472
H          0.64437       -0.67919       -1.05611
C          4.07726        0.16007       -0.91938
H          4.43994       -0.85787       -1.06018
H          3.97923        0.67925       -1.87214
H          4.72367        0.71276       -0.23749
S         -1.70299       -1.23107       -0.01619
O         -1.47297       -2.66544       -0.12558
O         -0.68645       -0.39125       -0.76062
O         -1.80505       -0.71924        1.39272
H         -0.61421        0.06405        1.88322
C         -3.25399       -0.82023       -0.77841
H         -3.21832       -1.17930       -1.80764
H         -4.03801       -1.33492       -0.22172
H         -3.37743        0.26714       -0.74072
N          0.27491        0.59855        2.20988
H          1.06421       -0.06028        2.25083
H          0.12618        1.04676        3.10902
H          0.54575        1.28587        1.49518
N         -2.91717        2.57212       -0.80044
H         -2.66698        2.70788       -1.77386
C         -1.73380        2.68540        0.05114
H         -1.25885        3.67770        0.04647
H         -2.01748        2.44210        1.08095
H         -1.00022        1.94526       -0.27841
H         -3.60622        3.27825       -0.56603
