37
2msa1ma1eda_328.log	Energy: -1013356.1391493
S         -2.59977        0.11009       -0.21935
O         -2.41203        1.53249       -0.61460
O         -2.73216       -0.12332        1.22132
O         -1.52061       -0.74028       -0.84728
C         -4.11407       -0.41829       -0.99599
H         -4.92251        0.19485       -0.59717
H         -4.01699       -0.27723       -2.07226
H         -4.27183       -1.46900       -0.75261
S          1.61000       -1.83418       -0.36664
O          2.69358       -2.24302        0.50160
O          1.72071       -0.53565       -1.04928
O          0.27877       -1.88588        0.45438
H         -0.50300       -1.40611       -0.03043
C          1.36082       -3.06533       -1.62829
H          2.25248       -3.07911       -2.25594
H          1.21790       -4.02775       -1.13721
H          0.48054       -2.78539       -2.20851
N         -0.11270        0.65065        2.75000
H         -0.51861        1.31338        3.40325
C          0.77965       -0.27143        3.45291
H          0.30176       -0.82107        4.27712
H          1.17132       -1.00287        2.74322
H          1.63066        0.28150        3.86334
H         -0.90215        0.15417        2.34019
H          0.37967        3.44655        0.35075
H          0.65814        1.83867        1.06845
H          2.81797        3.12794        0.83453
H          2.81759        1.66628       -0.16023
H          2.50189        4.40380       -1.14010
H          3.46761        3.21073       -1.70339
H         -0.77527        1.83018       -0.94686
H          0.59804        2.38334       -1.82241
C          0.87282        2.48091        0.20323
C          2.36418        2.65515       -0.04541
N          0.26959        1.86025       -1.00508
N          2.56236        3.40257       -1.29194
H          0.60995        0.88760       -1.09659
