31
2msa1tma_13.log	Energy: -943125.1492522
S         -3.54328       -0.07838        0.06654
O         -3.38328        0.96973       -0.93387
O         -3.32363        0.27475        1.46275
O         -2.66598       -1.34038       -0.32361
H         -1.68251       -1.11933       -0.28407
C         -5.14924       -0.81920       -0.11084
H         -5.87778       -0.04322        0.12593
H         -5.26481       -1.15679       -1.14018
H         -5.22728       -1.64845        0.59149
S          0.70003        0.39656       -0.06389
O         -0.13101       -0.82407       -0.20550
O          1.41791        0.77485       -1.29717
O          1.66730        0.25538        1.08657
H          3.02674       -0.07148        0.53639
C         -0.38471        1.73127        0.38411
H         -1.11158        1.86351       -0.41933
H         -0.89982        1.46274        1.30738
H          0.22166        2.62725        0.51654
N          3.99833       -0.31269        0.11288
C          4.49758        0.92769       -0.52607
H          3.75007        1.25125       -1.25132
H          4.61330        1.69395        0.24153
H          5.45886        0.73061       -1.00767
C          4.86230       -0.76350        1.22369
H          4.93291        0.03410        1.96401
H          4.41196       -1.64244        1.68594
H          5.85663       -1.00875        0.84194
C          3.76498       -1.38390       -0.88663
H          3.31648       -2.24076       -0.38249
H          3.06698       -1.00280       -1.63298
H          4.71598       -1.66754       -1.34462
