34
2msa1a1eda_99.log	Energy: -988704.1674109
S         -1.66676       -1.47116       -0.33349
O         -2.32852       -1.07138        0.92007
O         -0.29498       -2.03181       -0.11199
O         -1.66710       -0.40360       -1.37224
C         -2.60059       -2.82227       -1.02621
H         -3.61175       -2.46521       -1.22207
H         -2.11577       -3.13817       -1.94973
H         -2.61157       -3.63124       -0.29585
S          2.54731       -0.40327        0.43153
O          3.75465       -0.11671        1.17819
O          1.87232        0.70952       -0.24809
O          1.53430       -1.11301        1.40419
H          0.71965       -1.44245        0.88639
C          2.86733       -1.65356       -0.79595
H          3.55325       -1.22559       -1.52778
H          3.32151       -2.50907       -0.29616
H          1.91382       -1.92399       -1.25243
N          1.58656        3.11592       -1.92766
H          1.65216        2.98546       -2.93173
H          2.16894        2.40850       -1.47935
H          1.97358        4.02819       -1.71045
H         -1.36481        3.79561        0.27236
H         -2.38542        3.05440       -0.98389
H         -3.31821        2.81241        1.39360
H         -3.09501        1.28012        0.53779
H         -1.74365        2.08590        2.89841
H         -1.76156        0.62024        2.12166
H          0.07146        2.48057       -1.09735
H         -0.15615        1.70223        0.36940
C         -1.77358        2.85265       -0.10184
C         -2.56690        2.12458        0.98980
N         -0.63302        1.99871       -0.49341
N         -1.64813        1.62325        2.00508
H         -0.96016        1.11537       -0.94541
