32
2msa2ma_229.log	Energy: -953950.7454291
S          1.80454        0.32171        0.61933
O          0.97238        0.03800        1.79066
O          1.03312        0.15919       -0.68013
O          3.05189       -0.50548        0.53459
H          2.82476       -1.68504       -0.58053
C          2.30057        2.02217        0.67209
H          1.38373        2.62499        0.61506
H          2.83295        2.17726        1.61109
H          2.95257        2.21366       -0.18053
S         -2.48778       -0.55363        0.05037
O         -3.58642       -1.40815       -0.35043
O         -2.52370        0.87123       -0.25420
O         -1.16990       -1.18180       -0.59822
H         -0.40413       -0.52962       -0.58031
C         -2.19134       -0.74615        1.79440
H         -3.03349       -0.28487        2.31184
H         -2.14325       -1.81293        2.01274
H         -1.24805       -0.25336        2.03968
N          2.23910       -2.17930       -1.31836
H          1.63831       -1.38868       -1.61036
C          1.42105       -3.25471       -0.70310
H          0.72075       -3.65068       -1.43721
H          2.08291       -4.03790       -0.33554
H          0.86464       -2.81578        0.12449
H          2.80795       -2.50715       -2.09509
N         -0.56358        3.29238       -0.22815
H         -1.22700        2.54327       -0.04397
C         -0.17692        3.25601       -1.63784
H         -1.01398        3.35865       -2.34320
H          0.54358        4.05521       -1.84255
H          0.31714        2.30063       -1.83625
H         -1.03529        4.16361       -0.01048
