42
2msa2eda_296.log	Energy: -1072754.1577382
S         -0.29863       -1.76510        0.23486
O         -1.39165       -2.45446        0.93203
O          0.56160       -0.97257        1.17911
O         -0.75980       -0.91816       -0.90241
H         -1.20396        0.65894       -0.69910
C          0.76946       -2.99517       -0.48444
H          1.15049       -3.62164        0.32278
H          0.17426       -3.58667       -1.18037
H          1.57875       -2.47738       -1.00320
S          3.45090        0.21864       -0.33691
O          3.11742        1.64042       -0.39064
O          3.00971       -0.62511       -1.44012
O          2.99761       -0.40006        1.03725
H          1.99592       -0.65957        1.04792
C          5.21188        0.07142       -0.14404
H          5.66323        0.49336       -1.04244
H          5.51141        0.63400        0.73978
H          5.46066       -0.98437       -0.04293
H         -1.95349        2.85253        1.14127
H         -1.63746        1.14487        1.53454
H          0.32169        2.69429        2.10027
H          0.72299        1.38616        0.99327
H          0.58539        4.19972        0.34259
H          1.51823        2.99240       -0.28152
H         -2.58263        1.66797       -0.72923
H         -1.00810        2.30027       -1.06256
C         -1.32519        1.98583        0.91187
C          0.15725        2.31463        1.08499
N         -1.55789        1.62997       -0.50848
N          0.58285        3.23571        0.03255
H         -6.02818        0.21438       -0.63979
H         -5.02956        0.34528       -2.09525
H         -4.62871       -1.77115       -0.83109
H         -3.16572       -0.81178       -1.01689
H         -4.70487       -1.08609        1.43839
H         -3.10944       -1.33198        1.16327
H         -4.99097        2.39057       -0.80196
H         -4.39039        1.56091        0.48547
C         -4.99548        0.33816       -1.00117
C         -4.14141       -0.83432       -0.52275
N         -4.40979        1.60350       -0.53275
N         -3.90432       -0.74140        0.91740
