32
2msa1a1dma_106.log	Energy: -953957.1438984
S         -1.00336       -1.04736       -0.52415
O         -2.22942       -1.74643       -0.85180
O         -0.76101        0.22273       -1.23679
O          0.18552       -2.03644       -0.79559
H          1.07790       -1.68096       -0.46300
C         -0.92605       -0.70924        1.21660
H         -1.79475       -0.07530        1.42563
H         -0.99955       -1.66239        1.74093
H          0.01964       -0.20581        1.43392
S          2.92370        0.15305        0.32213
O          2.41016       -1.23836        0.19595
O          2.02319        1.01679        1.13030
O          3.24329        0.77618       -0.99351
H          1.92826        1.82323       -1.38191
C          4.46348        0.00286        1.19974
H          4.25902       -0.45693        2.16652
H          5.12693       -0.62509        0.60522
H          4.88296        1.00110        1.32442
N          1.01064        2.25936       -1.11804
H          0.27454        1.52456       -1.23076
H          0.79482        3.10385       -1.63811
H          1.10945        2.42406       -0.10995
N         -3.96929        0.45584        0.56571
C         -4.01767        1.47777       -0.46824
C         -5.10181        0.51827        1.47419
H         -3.92392       -0.45843        0.12448
H         -3.89582        2.46629       -0.00956
H         -3.19591        1.32059       -1.17168
H         -4.96619        1.48534       -1.03320
H         -5.07410        1.46398        2.02706
H         -6.07957        0.45681        0.96515
H         -5.04017       -0.29610        2.20133
