43
2msa1eda1tma_222.log	Energy: -1062672.9343213
S         -0.95869       -1.69998        0.27591
O          0.25786       -2.50547        0.42126
O         -1.18929       -1.09283       -1.03044
O         -1.02327       -0.62573        1.42381
H         -0.44534        0.20762        1.27539
C         -2.36756       -2.67535        0.73188
H         -2.35339       -3.55829        0.09125
H         -2.26972       -2.95544        1.78033
H         -3.25985       -2.07226        0.53434
S          1.31758        1.87376        0.20792
O          2.66195        2.10218        0.76083
O          0.29692        1.53660        1.24903
O          1.31507        0.85361       -0.88689
H          2.36388       -0.31532       -0.62894
C          0.74987        3.38766       -0.53668
H          0.70428        4.14705        0.24427
H          1.46523        3.67288       -1.30813
H         -0.23830        3.21159       -0.96609
H         -4.80722        1.49837       -1.45774
H         -5.68478        0.70257       -0.13477
H         -4.17635        2.26681        0.83259
H         -3.56783        0.63876        1.18588
H         -1.83371        2.13082        0.45484
H         -2.00078        0.99132       -0.67045
H         -4.97039       -0.93089       -1.70387
H         -3.40045       -0.53518       -1.51255
C         -4.70621        0.79179       -0.61956
C         -3.72108        1.37777        0.38209
N         -4.30156       -0.55437       -1.04042
N         -2.47309        1.79408       -0.25926
N          3.18161       -0.96461       -0.42683
C          4.39286       -0.20755       -0.82452
H          4.34471       -0.00914       -1.89581
H          4.39379        0.73676       -0.27767
H          5.28158       -0.79853       -0.59053
C          3.16146       -1.22937        1.03621
H          3.22766       -0.27096        1.55334
H          2.22222       -1.72766        1.27749
H          4.01242       -1.86519        1.29302
C          2.99284       -2.20212       -1.22012
H          2.05243       -2.66136       -0.91447
H          2.94949       -1.93727       -2.27725
H          3.83267       -2.87701       -1.03682
