43
2msa1eda1tma_81.log	Energy: -1062681.0052791
S          2.46193       -0.56441       -0.87870
O          2.84950       -0.90477        0.48520
O          2.54451        0.95471       -1.15234
O          1.16205       -1.10405       -1.32371
C          3.70944       -1.16191       -1.99425
H          4.65414       -0.68597       -1.73188
H          3.77264       -2.24202       -1.86008
H          3.41376       -0.91039       -3.01224
S         -0.24421        2.29622        0.44455
O          0.29774        1.29249        1.39057
O         -1.68175        2.15750        0.17991
O          0.56227        2.32863       -0.83196
H          1.64045        1.52951       -0.96327
C          0.01312        3.89546        1.18698
H         -0.54949        3.92658        2.12030
H          1.07993        4.01880        1.37387
H         -0.34853        4.65230        0.49077
H         -1.57126       -2.25503        2.30245
H         -1.09525       -3.22289        0.88316
H          0.48797       -3.50997        2.76235
H          1.29262       -2.79250        1.35742
H          1.59372       -1.75237        3.69422
H          1.33708       -0.73270        2.45532
H         -1.76202       -1.00652        0.20305
H         -0.58034       -0.30756        1.22765
C         -0.81575       -2.38082        1.52326
C          0.55490       -2.60384        2.15167
N         -0.82495       -1.15852        0.68849
N          0.90719       -1.47564        3.00290
H         -0.10867       -1.21158       -0.05803
N         -3.13483       -0.84886       -0.83974
C         -2.54204       -0.20529       -2.01504
H         -2.13136        0.76409       -1.72448
H         -1.72935       -0.82660       -2.40355
H         -3.28835       -0.05957       -2.81340
C         -3.67451       -2.16111       -1.17433
H         -2.87990       -2.79617       -1.57862
H         -4.07854       -2.63675       -0.27551
H         -4.47981       -2.09794       -1.92560
C         -4.15053        0.00878       -0.23064
H         -4.54939       -0.47487        0.66622
H         -3.69143        0.95809        0.05183
H         -4.98624        0.20067       -0.92443
