42
2msa2eda_446.log	Energy: -1072747.4590935
S          0.29421        1.84069        0.07585
O          0.48007        1.69090       -1.36617
O          1.42301        1.41035        0.92379
O         -0.97495        1.14684        0.56869
C          0.00176        3.56732        0.41722
H          0.88844        4.11893        0.10307
H         -0.86816        3.88793       -0.15670
H         -0.16895        3.68613        1.48699
S         -3.75185       -0.54956       -0.23827
O         -3.48004       -1.07255        1.10679
O         -3.20077       -1.30903       -1.35129
O         -3.33277        0.96409       -0.32046
H         -2.35370        1.09940       -0.03735
C         -5.50478       -0.37037       -0.44453
H         -5.93088       -1.37339       -0.41151
H         -5.88821        0.24299        0.36995
H         -5.68711        0.09551       -1.41251
H         -0.24341       -3.29567        0.31218
H         -0.97483       -2.05356       -0.74198
H          1.59930       -2.48546       -1.01986
H          1.08765       -0.80707       -0.86060
H          2.91837       -2.01876        0.71434
H          2.10738       -0.67045        1.11826
H         -1.60327       -1.73974        1.57361
H          0.06329       -1.63453        1.96743
C         -0.24072       -2.23605        0.04482
C          1.16626       -1.76083       -0.32396
N         -0.66351       -1.48191        1.25809
N          1.98085       -1.65445        0.88579
H         -0.70808       -0.45355        1.05496
H          6.30727       -0.58245       -0.97032
H          5.11954       -1.50733       -1.90175
H          4.52027        0.88669       -1.78199
H          3.28849       -0.12773       -1.04052
H          5.13380        1.61799        0.36616
H          3.52161        1.36526        0.59672
H          5.68921       -2.59572        0.20901
H          5.08750       -1.29545        1.01398
C          5.26999       -0.95877       -0.96526
C          4.31371        0.23204       -0.92259
N          5.00253       -1.85075        0.16434
N          4.40341        0.91526        0.36636
