30
2msa1eda_90.log	Energy: -953200.9519223
S         -0.85996        1.50174       -0.06508
O         -0.38880        0.76176       -1.27384
O         -0.50224        0.81656        1.19597
O         -2.33506        1.75189       -0.14155
H         -2.94265        0.40667        0.52292
C         -0.04200        3.07698       -0.09588
H          1.02999        2.87181       -0.06228
H         -0.31404        3.58226       -1.02248
H         -0.36590        3.64894        0.77360
S          2.69631       -0.43107       -0.04007
O          2.74314        1.01607       -0.20221
O          3.83964       -1.24560       -0.39977
O          1.44164       -0.99195       -0.85721
H          0.78710       -0.24395       -1.05161
C          2.24037       -0.79432        1.64189
H          3.05024       -0.43152        2.27634
H          1.30457       -0.27261        1.85073
H          2.13444       -1.87482        1.74195
H         -4.01258       -2.37914        0.30646
H         -4.22348       -1.02832       -0.83865
H         -2.47743       -2.71086       -1.60997
H         -1.82032       -1.08162       -1.40339
H         -1.25573       -3.38005        0.25549
H         -0.32533       -2.06703       -0.08587
H         -3.83933       -0.49059        1.65658
H         -2.24820       -0.90919        1.30662
C         -3.52424       -1.51935       -0.15975
C         -2.23241       -1.94202       -0.86861
N         -3.14623       -0.56415        0.91655
N         -1.26805       -2.37419        0.13902
