35
2msa1ma1dma_329.log	Energy: -978612.9058568
S          0.02533       -2.41634        0.18470
O         -0.16371       -3.80747       -0.16805
O         -0.88629       -1.79363        1.14615
O         -0.02397       -1.58232       -1.16594
H         -0.13544       -0.59977       -0.96942
C          1.69582       -2.15488        0.73874
H          1.77232       -2.55852        1.74903
H          2.35266       -2.69715        0.05815
H          1.91418       -1.08028        0.70634
S         -0.56091        1.99448        0.19457
O          0.37856        3.05997       -0.14472
O         -0.59309        0.88874       -0.83779
O         -1.96943        2.44193        0.44205
H         -2.98740        1.43541       -0.28630
C         -0.00713        1.25711        1.71842
H          1.02540        0.93871        1.56432
H         -0.07002        2.02682        2.48820
H         -0.63997        0.40110        1.95153
N         -3.29953        0.61813       -0.89847
H         -4.02462        0.91565       -1.54683
C         -3.69386       -0.56131       -0.08760
H         -3.98410       -1.37825       -0.74795
H         -2.83221       -0.86869        0.50819
H         -4.52506       -0.28358        0.55971
H         -2.42050        0.43758       -1.40542
N          2.72063        0.90092       -0.24732
C          2.89407        0.33827       -1.57853
C          3.98548        1.11638        0.43742
H          2.21735        1.78240       -0.32655
H          3.30371       -0.67587       -1.49996
H          1.92429        0.27506       -2.07612
H          3.57698        0.92753       -2.21310
H          4.46803        0.15010        0.62816
H          4.69506        1.73625       -0.13615
H          3.80789        1.60078        1.40191
