43
2msa1eda1tma_26.log	Energy: -1062691.3070016
S         -2.86608       -1.00896       -0.05196
O         -2.39735       -2.27203       -0.65329
O         -3.28101        0.03039       -1.01421
O         -1.87187       -0.46449        0.94133
C         -4.30930       -1.42173        0.91926
H         -5.06289       -1.82358        0.24130
H         -4.02381       -2.16711        1.66166
H         -4.67288       -0.51494        1.40311
S          2.86883        0.91936        0.15739
O          3.42862       -0.07246        1.09080
O          2.24803        2.10651        0.76295
O          1.91088        0.25174       -0.81954
C          4.22027        1.49587       -0.85790
H          4.94011        1.98562       -0.20143
H          4.67515        0.63684       -1.35138
H          3.82891        2.20142       -1.59088
H         -0.62501        3.08974       -1.59849
H         -1.76823        1.72026       -1.77346
H         -2.96160        3.75268       -0.98641
H         -3.02342        2.42713        0.17542
H         -1.35681        4.83203        0.41843
H         -2.35981        4.16085        1.52598
H          0.32750        1.14395       -0.57826
H         -0.09207        2.21947        0.59918
C         -1.29631        2.40670       -1.06953
C         -2.35757        3.16374       -0.28303
N         -0.47915        1.60900       -0.12822
N         -1.72067        3.95310        0.76929
H         -1.05586        0.85625        0.33061
N          1.48908       -2.33399       -0.08592
C          0.61896       -3.02481       -1.07245
H         -0.38162       -2.58498       -1.05356
H          1.07090       -2.92451       -2.06043
H          0.55020       -4.08066       -0.80016
C          2.83746       -2.94703       -0.01157
H          3.26752       -2.97370       -1.01391
H          3.45685       -2.32983        0.63917
H          2.74137       -3.96285        0.37849
C          0.85437       -2.24722        1.25786
H          1.52169       -1.67524        1.90404
H         -0.11025       -1.74183        1.16365
H          0.71327       -3.25927        1.64441
H          1.62627       -1.34131       -0.41005
