42
2msa2eda_603.log	Energy: -1072736.7812856
S         -1.94695       -1.64836       -0.56724
O         -3.39158       -1.60381       -0.40368
O         -1.27716       -2.94529       -0.66460
O         -1.30091       -0.84464        0.63524
H         -0.49183       -1.33420        1.04570
C         -1.50891       -0.65424       -1.97045
H         -1.94013       -1.13789       -2.84810
H         -1.93900        0.33780       -1.80659
H         -0.42328       -0.59185       -2.03872
S          2.25381        1.50507       -0.55124
O          1.17233        0.96338       -1.36553
O          3.61857        1.31276       -1.03515
O          2.15800        0.89885        0.92283
H          2.57838       -0.03975        0.87550
C          1.93787        3.21342       -0.21149
H          1.99417        3.72839       -1.17148
H          0.93229        3.28611        0.21973
H          2.70827        3.57560        0.46874
H          2.10800       -3.65874        1.62913
H          0.67150       -3.73434        0.58385
H          2.58885       -3.15727       -0.75609
H          1.47346       -1.78511       -0.70822
H          3.84458       -1.97182        1.02885
H          3.76464       -1.09969       -0.34900
H          0.19940       -2.55822        2.60569
H          1.31223       -1.41143        2.26979
C          1.41016       -3.06090        1.02346
C          2.16507       -2.38243       -0.10659
N          0.67873       -2.08385        1.84554
N          3.20352       -1.47406        0.41597
H         -2.52655        1.28348        2.05509
H         -2.19903        2.98005        2.45368
H         -4.20425        2.87063        1.13765
H         -2.93319        3.63620        0.16395
H         -3.73676        0.81616       -0.10126
H         -4.00619        2.01575       -1.17753
H         -0.24139        1.72374        1.66243
H         -0.93593        1.59003        0.21313
C         -2.21187        2.25277        1.63389
C         -3.25332        2.68920        0.61216
N         -0.88213        2.19501        1.03010
N         -3.36812        1.69609       -0.45716
