34
2msa1a1eda_317.log	Energy: -988688.9848632
S         -0.91006        1.76904       -0.22726
O         -0.56033        0.78355       -1.30369
O         -0.22785        3.07448       -0.41256
O         -0.65912        1.20626        1.12964
H          0.86502        1.89150        1.75650
C         -2.65694        2.01172       -0.38947
H         -2.84622        2.40069       -1.39045
H         -3.14095        1.03789       -0.23454
H         -2.96206        2.73337        0.36892
S          2.33402       -0.83474       -0.12816
O          1.81846       -1.38230        1.11613
O          2.95540        0.50351       -0.03732
O          1.28223       -0.85922       -1.27194
H          0.51484       -0.13117       -1.21583
C          3.54230       -1.94123       -0.81223
H          4.34748       -2.02108       -0.08150
H          3.06528       -2.90857       -0.96757
H          3.90514       -1.52379       -1.75070
N          1.69827        2.43852        1.44628
H          2.16295        2.93434        2.19971
H          1.28582        3.06951        0.73461
H          2.32812        1.76296        0.96194
H         -2.99955       -2.86013       -1.09170
H         -2.29271       -1.29980       -1.55469
H         -0.71689       -2.51959       -0.17371
H         -1.26658       -1.07966        0.68411
H         -2.13201       -3.81445        1.24697
H         -1.45369       -2.72228        2.25503
H         -4.64779       -1.22202       -0.66745
H         -3.99415       -1.53549        0.80360
C         -2.69398       -1.87015       -0.71010
C         -1.58509       -2.05845        0.31711
N         -3.80541       -1.12876       -0.11021
N         -2.08051       -2.82442        1.46528
