38
2msa1ma1tma_61.log	Energy: -1003282.2557358
S         -0.11367        1.74690       -0.45193
O          0.04953        0.78787       -1.55914
O          0.07130        1.10168        0.89078
O         -1.42173        2.46959       -0.47916
H         -2.51347        1.57519        0.34128
C          1.15700        2.97916       -0.60981
H          2.11656        2.46576       -0.52187
H          1.04429        3.45157       -1.58580
H          1.02786        3.70619        0.19199
S          3.01116       -0.80548        0.30632
O          3.97670       -1.72834        0.86804
O          3.36650        0.59415        0.10302
O          1.71239       -0.88187        1.22337
H          1.13058       -0.06987        1.09213
C          2.42242       -1.45440       -1.24486
H          3.26875       -1.45664       -1.93320
H          2.06577       -2.47057       -1.07494
H          1.62665       -0.79851       -1.60604
N         -3.11513        0.87139        0.85667
H         -4.09238        1.11998        0.72198
C         -2.75112        0.82458        2.29121
H         -3.29552        0.01650        2.78225
H         -1.67575        0.65640        2.34776
H         -2.99021        1.77695        2.76485
H         -2.92762       -0.08824        0.38656
N         -2.61321       -1.54845       -0.35629
C         -1.27952       -2.01771        0.03373
H         -0.53586       -1.28397       -0.27630
H         -1.22347       -2.13124        1.11947
H         -1.04627       -2.98723       -0.43428
C         -3.64187       -2.51104        0.02900
H         -3.59790       -2.68613        1.10803
H         -4.63235       -2.11963       -0.22371
H         -3.51128       -3.47756       -0.48306
C         -2.65950       -1.26847       -1.79521
H         -3.64333       -0.86796       -2.05975
H         -1.89267       -0.53021       -2.04351
H         -2.48574       -2.18133       -2.38644
