43
2msa1eda1tma_25.log	Energy: -1062693.2046342
S          1.32319       -1.60302       -0.78169
O          0.75339       -2.94476       -0.99082
O          2.78773       -1.51257       -0.69596
O          0.66648       -0.96048        0.43933
H         -0.87273       -1.50978        0.60816
C          0.80646       -0.58610       -2.15379
H          1.20556        0.41962       -2.01675
H          1.19398       -1.04317       -3.06512
H         -0.28347       -0.53392       -2.16316
S         -1.66197        1.95507       -0.38554
O         -1.48936        1.97636        1.10030
O         -2.31232        0.71046       -0.85675
O         -0.40225        2.28209       -1.09516
H          1.30199        2.01069        0.09833
C         -2.80153        3.28007       -0.76158
H         -2.36469        4.21645       -0.41383
H         -2.94926        3.30303       -1.84160
H         -3.74317        3.08130       -0.24913
H          3.43507       -0.00844        1.27612
H          4.55648        1.30282        1.65404
H          2.32662        1.50413        2.83768
H          2.68126        2.91611        1.81803
H          1.06509        0.58939        0.87760
H          0.36303        1.98382        1.43887
H          4.42843        1.93546       -0.55822
H          3.68083        0.47812       -0.81614
C          3.61777        1.06230        1.14028
C          2.48262        1.84101        1.80978
N          3.65194        1.34631       -0.28936
N          1.24264        1.61169        1.04385
N         -1.74743       -2.06310        0.82206
C         -2.41181       -2.37412       -0.47116
H         -2.66259       -1.42871       -0.95203
H         -1.70730       -2.93988       -1.08184
H         -3.31115       -2.96186       -0.26970
C         -1.27307       -3.29431        1.49934
H         -0.57306       -3.79772        0.83136
H         -0.75869       -3.01204        2.41856
H         -2.13097       -3.93102        1.72856
C         -2.60603       -1.22813        1.69690
H         -2.04657       -0.97347        2.59765
H         -2.85754       -0.31550        1.15715
H         -3.50261       -1.79564        1.95901
