38
2msa2dma_197.log	Energy: -1003273.4809069
S          1.33798        2.24164       -0.05680
O          1.44114        3.67750       -0.21841
O          2.14467        1.35186       -0.88226
O         -0.20179        1.87148       -0.26809
H         -0.31433        0.88322       -0.43092
C          1.60761        1.81548        1.64967
H          2.66839        1.96980        1.85140
H          0.99757        2.47576        2.26594
H          1.31997        0.77157        1.79315
S         -0.90999       -1.49239        0.55938
O         -0.06664       -1.00315        1.65308
O         -0.84995       -0.58916       -0.65905
O         -2.34626       -1.70017        0.93089
H         -3.25091       -0.52397        0.20916
C         -0.27435       -3.05678        0.01634
H          0.75916       -2.88070       -0.31193
H         -0.31708       -3.74105        0.86462
H         -0.90037       -3.41472       -0.80129
N         -3.44364        0.25439       -0.48329
C         -3.47092        1.55879        0.21721
C         -4.63428       -0.04224       -1.30269
H         -2.57456        0.18431       -1.03766
H         -4.30059        1.56354        0.92489
H         -2.52390        1.68856        0.74116
H         -3.59018        2.35979       -0.51345
H         -5.51628       -0.05031       -0.66097
H         -4.74652        0.72051       -2.07473
H         -4.50754       -1.02198       -1.76321
N          2.64216       -1.71060       -0.63296
C          3.64659       -1.93668       -1.66071
C          3.21973       -1.64841        0.70141
H          2.18990       -0.81934       -0.82242
H          4.09754       -2.92639       -1.52376
H          3.17482       -1.91310       -2.64669
H          4.45786       -1.18884       -1.64797
H          3.68099       -2.61240        0.94579
H          3.99509       -0.86872        0.80347
H          2.42788       -1.45770        1.43115
