42
2msa2eda_261.log	Energy: -1072756.8088653
S          2.72514       -0.48818        0.38142
O          2.99256        0.42439       -0.74245
O          2.37861       -1.87875       -0.02796
O          1.73157        0.06609        1.35319
C          4.25008       -0.66078        1.28961
H          4.99967       -1.06319        0.60803
H          4.54523        0.32531        1.64895
H          4.07983       -1.34262        2.12266
S         -0.99537       -1.96574       -0.53080
O         -2.21057       -2.64378       -0.95491
O         -0.80324       -0.57978       -0.95948
O          0.22026       -2.84399       -0.99628
H          1.09664       -2.42276       -0.69593
C         -0.89658       -2.00308        1.24535
H         -1.78712       -1.48492        1.60825
H         -0.90176       -3.04603        1.56262
H          0.02054       -1.49204        1.55008
H         -0.41163        3.82190       -0.23070
H          0.61159        3.53322        1.19762
H          1.87925        4.33081       -0.88035
H          2.47806        2.80941       -0.20111
H          1.56209        3.15572       -2.78718
H          1.90729        1.73016       -2.02758
H         -1.03390        1.73676        0.68761
H         -0.17576        1.45697       -0.73836
C          0.39451        3.20574        0.17773
C          1.63366        3.27621       -0.71931
N         -0.09363        1.81255        0.22161
N          1.36225        2.58729       -1.97605
H          0.58322        1.17190        0.69485
H         -4.72686        2.09224        0.97481
H         -3.54152        2.80567       -0.12975
H         -4.62406        0.84328       -1.15583
H         -2.89253        0.55491       -0.93259
H         -5.01949       -0.59757        0.69655
H         -3.78736       -1.34401       -0.08980
H         -2.75298        2.42946        2.21713
H         -2.80747        0.82490        1.88324
C         -3.75495        1.92521        0.48627
C         -3.83955        0.68642       -0.40170
N         -2.67532        1.74766        1.46890
N         -4.04671       -0.50443        0.42302
