43
2msa1eda1tma_109.log	Energy: -1062680.8285347
S          0.66944        2.69185        0.36374
O          0.23429        3.75753        1.24170
O         -0.36800        1.97478       -0.39966
O          1.49362        1.66251        1.21097
C          1.85183        3.30672       -0.81485
H          2.64015        3.82043       -0.26472
H          2.24956        2.45497       -1.36919
H          1.32404        3.99600       -1.47439
S          2.40583       -1.37283       -0.46770
O          1.31777       -1.61981       -1.43782
O          2.19855       -2.03097        0.83648
O          2.69272        0.10022       -0.31490
H          1.98178        0.95707        0.61573
C          3.90055       -2.03464       -1.17732
H          4.07981       -1.53485       -2.12910
H          4.71739       -1.85147       -0.47942
H          3.75072       -3.10413       -1.32653
H          0.26210       -0.82176        1.72671
H         -1.36986       -0.18122        1.99857
H         -1.05466       -2.48479        2.92631
H         -2.34813       -2.42264        1.72018
H          0.39227       -3.25510        1.03748
H         -0.90636       -4.26699        1.20116
H         -0.60909        0.22544       -0.22077
H         -0.36467       -1.39481       -0.51816
C         -0.79304       -0.94956        1.47877
C         -1.26069       -2.34877        1.85326
N         -0.93832       -0.72435        0.01977
N         -0.62342       -3.32089        0.97904
H         -1.94951       -0.75929       -0.26837
N         -3.61269       -0.19711       -0.66266
C         -4.65120       -1.21888       -0.69315
H         -4.39369       -1.98381       -1.43042
H         -4.72745       -1.69768        0.28730
H         -5.63768       -0.79823       -0.95230
C         -3.88038        0.81331        0.35837
H         -3.96949        0.33196        1.33707
H         -3.05375        1.52947        0.39182
H         -4.81385        1.36519        0.15833
C         -3.43319        0.42474       -1.97282
H         -2.62161        1.15630       -1.92218
H         -3.16860       -0.33867       -2.70969
H         -4.34738        0.93906       -2.31297
