22
2msa1a_15.log	Energy: -869139.4255299
S         -2.27993       -0.28481       -0.07306
O         -1.80524       -1.53550       -0.67069
O         -2.40979        0.85370       -1.03495
O         -1.46507        0.14371        1.12001
C         -3.92449       -0.58452        0.55054
H         -4.55070       -0.88467       -0.29007
H         -3.86515       -1.38429        1.28896
H         -4.30088        0.33279        1.00313
S          2.52845       -0.15325       -0.12874
O          3.66985       -0.71546       -0.82379
O          1.94507        1.09590       -0.60548
O          2.98701        0.13512        1.40389
H          3.88725       -0.20270        1.51693
C          1.25074       -1.35384        0.09942
H          0.78286       -1.53249       -0.87034
H          1.71022       -2.26223        0.48849
H          0.49998       -0.94763        0.78253
N         -0.48925        2.35678        0.02678
H         -0.75482        1.71713        0.81233
H         -1.20673        2.06588       -0.68105
H         -0.53800        3.34150        0.26622
H          0.45232        2.07875       -0.28748
