32
2msa2ma_147.log	Energy: -953961.6811558
S         -1.13814       -1.61146        0.00758
O         -0.46209       -2.74169        0.63765
O         -0.72333       -0.27391        0.56898
O         -2.62884       -1.65333       -0.01945
H         -3.08042       -0.02811       -0.11912
C         -0.64122       -1.58692       -1.71111
H          0.43058       -1.39638       -1.77002
H         -0.90017       -2.55375       -2.14345
H         -1.18470       -0.78776       -2.21833
S          2.54932        0.27647        0.09058
O          3.74725        1.05430        0.32462
O          1.80866        0.46370       -1.16084
O          1.56677        0.53168        1.30277
H          0.65054        0.15256        1.07085
C          2.91894       -1.45887        0.25347
H          3.55259       -1.74074       -0.58830
H          3.44575       -1.59977        1.19711
H          1.98261       -2.02319        0.25220
N         -3.17530        1.02128       -0.09786
H         -2.30881        1.43289       -0.59350
C         -3.22194        1.47375        1.31196
H         -3.25345        2.56328        1.34880
H         -4.10016        1.05508        1.80362
H         -2.31930        1.10306        1.79564
H         -4.01413        1.29079       -0.60661
N         -0.86383        2.11821       -1.19774
H         -0.18968        1.35157       -1.24647
C         -0.36859        3.07438       -0.19373
H          0.63066        3.45804       -0.42423
H         -1.06158        3.91718       -0.11303
H         -0.31577        2.57124        0.77417
H         -0.85996        2.55750       -2.11412
