32
2msa1a1dma_02.log	Energy: -953982.4319527
S          2.76721       -0.30610       -0.14905
O          2.54650        1.06289       -0.68979
O          2.54357       -1.39085       -1.12262
O          1.97473       -0.52496        1.10773
C          4.48376       -0.36122        0.32960
H          5.08477       -0.19131       -0.56390
H          4.66019        0.42022        1.06869
H          4.68816       -1.34550        0.75098
S         -2.71627       -0.42215        0.09151
O         -2.95934        0.87812        0.73247
O         -2.57155       -1.58357        0.98922
O         -1.52212       -0.33709       -0.84845
C         -4.11097       -0.75551       -0.97081
H         -4.99993       -0.80686       -0.34137
H         -4.19772        0.05683       -1.69237
H         -3.94410       -1.70656       -1.47647
N          0.11600       -2.26216        0.14880
H          0.68445       -2.86017       -0.44746
H         -0.55636       -2.76612        0.72630
H          0.77787       -1.68350        0.72093
H         -0.44288       -1.58888       -0.42789
N         -0.00977        1.86225       -0.09284
C         -0.58605        3.00442       -0.82877
C         -0.04076        2.01769        1.38097
H         -0.55614        1.01223       -0.35699
H         -0.03393        3.91232       -0.58046
H         -0.51020        2.80764       -1.89826
H         -1.63398        3.10719       -0.54298
H          0.48503        2.93614        1.64812
H         -1.08184        2.04873        1.70355
H          0.47329        1.15985        1.81522
H          0.97449        1.67065       -0.39109
