37
2msa1ma1eda_81.log	Energy: -1013365.5764838
S          2.52152       -0.86277       -0.36397
O          3.92520       -1.25411       -0.30862
O          2.02049       -0.30223        0.96405
O          1.57028       -1.89325       -0.84154
H         -0.05755       -1.84481        0.04190
C          2.38755        0.50452       -1.51057
H          3.09243        1.27974       -1.20431
H          2.66095        0.12685       -2.49640
H          1.36090        0.87901       -1.51957
S         -1.69562        1.36054       -0.45846
O         -1.97905        0.12580       -1.20480
O         -0.63988        2.22507       -1.01538
O         -1.40811        1.05256        1.00036
H          0.08080        1.85993        1.41793
C         -3.20118        2.31911       -0.44816
H         -3.44794        2.55222       -1.48438
H         -3.98955        1.72063        0.00858
H         -3.02942        3.23387        0.11922
N          1.09319        2.03929        1.61021
H          1.22347        2.12650        2.61550
C          1.60583        3.22386        0.88615
H          2.68614        3.28629        1.02029
H          1.34971        3.10381       -0.16504
H          1.12849        4.12588        1.26980
H          1.57516        1.13349        1.29584
H         -3.17803       -1.66603        0.70889
H         -3.32065       -3.41576        0.91962
H         -1.66337       -2.42054        2.49323
H         -0.91975       -3.61625        1.39363
H         -0.86470       -0.67570        0.95374
H          0.40442       -1.54468        1.55032
H         -2.98184       -3.39736       -1.31504
H         -2.14643       -1.98182       -1.30972
C         -2.65449       -2.62315        0.56549
C         -1.41266       -2.64395        1.45268
N         -2.28220       -2.86190       -0.81915
N         -0.44518       -1.62637        0.98307
