32
2msa2ma_201.log	Energy: -953956.7972245
S          1.53314        0.73576       -0.93384
O          2.56279        1.49325       -1.62592
O          0.14186        1.31885       -1.12756
O          1.76402        0.57739        0.54234
H          0.59884        1.15974        1.43098
C          1.46860       -0.91300       -1.60088
H          1.35279       -0.82836       -2.68182
H          2.40321       -1.41102       -1.32931
H          0.62289       -1.43639       -1.15083
S         -2.30669       -0.63140       -0.05940
O         -2.51612        0.39774        0.97849
O         -1.37124       -1.69431        0.28468
O         -1.92806        0.04340       -1.40842
H         -1.00298        0.58285       -1.32470
C         -3.88769       -1.32102       -0.47035
H         -4.26323       -1.81098        0.42829
H         -4.54911       -0.51243       -0.77934
H         -3.74380       -2.04373       -1.27311
N          3.40944       -1.98194        0.82784
H          4.30659       -2.25515        1.21197
C          2.31334       -2.66786        1.50508
H          2.27126       -2.50688        2.59409
H          1.36284       -2.32772        1.08458
H          2.38746       -3.74491        1.32628
H          3.30839       -0.97666        0.93744
N         -0.21221        1.63176        1.94141
H         -1.08299        1.14152        1.65325
C         -0.27248        3.06194        1.55460
H         -1.12450        3.53941        2.03850
H          0.65666        3.55055        1.84695
H         -0.37723        3.10027        0.47060
H         -0.08770        1.51050        2.94378
