35
2msa1ma1dma_13.log	Energy: -978639.1348803
S          2.45856       -0.24689       -0.34736
O          3.67895        0.55389       -0.36345
O          1.43446        0.22129        0.65410
O          2.65611       -1.71760       -0.17531
H          1.27509       -2.35306        0.42756
C          1.66359       -0.05838       -1.94053
H          2.32801       -0.47801       -2.69669
H          0.70263       -0.57721       -1.92079
H          1.51187        1.00566       -2.12894
S         -2.24135       -0.31583       -0.44870
O         -1.42039       -1.44034       -0.98814
O         -1.90739        0.98948       -1.08766
O         -2.21796       -0.25986        1.02736
H          0.55500        1.52942        0.57467
C         -3.91841       -0.66948       -0.94508
H         -3.94791       -0.73184       -2.03293
H         -4.21239       -1.61841       -0.49616
H         -4.55641        0.13879       -0.58725
N          0.30828       -2.62916        0.76125
H         -0.37400       -2.14288        0.12750
C          0.09904       -2.22522        2.17120
H         -0.94528       -2.37831        2.44051
H          0.75991       -2.80783        2.81358
H          0.34531       -1.16746        2.23952
H          0.18928       -3.63103        0.63197
N         -0.14678        2.32101        0.50449
C          0.51125        3.50931       -0.06635
C         -0.76272        2.53231        1.82996
H         -0.87026        1.93997       -0.15052
H          1.30951        3.83607        0.60191
H          0.93998        3.24705       -1.03380
H         -0.22061        4.30896       -0.19440
H          0.01538        2.78740        2.55147
H         -1.49314        3.34148        1.76688
H         -1.26451        1.60576        2.11223
