43
2msa1eda1tma_170.log	Energy: -1062674.8058369
S          1.92403        2.19270        0.20147
O          2.36457        3.54098        0.48263
O          2.20241        1.15227        1.20826
O          2.56436        1.73497       -1.16012
H          2.47759        0.69897       -1.31369
C          0.17524        2.17714       -0.11578
H         -0.32058        2.44621        0.81759
H         -0.02969        2.91432       -0.89228
H         -0.12311        1.17119       -0.42349
S         -0.80041       -1.72425        0.20385
O         -0.58380       -0.95149       -1.05295
O         -0.72834       -0.88248        1.41299
O          0.16331       -2.87742        0.28508
H          1.47405       -2.19351        0.96578
C         -2.43290       -2.41853        0.10021
H         -3.14558       -1.58758        0.03818
H         -2.47964       -3.04553       -0.79053
H         -2.60145       -3.01015        1.00046
H          2.48417       -2.84019       -1.17842
H          3.94808       -1.98058       -1.68262
H          4.06175       -2.48366        0.66763
H          4.00653       -0.71835        0.43718
H          2.52578       -1.74344        2.21931
H          1.91317       -0.57066        1.24427
H          2.29082       -0.81924       -2.68599
H          1.22003       -0.92620       -1.46914
C          3.02245       -1.88768       -1.10774
C          3.44063       -1.64747        0.33900
N          2.22313       -0.78965       -1.67199
N          2.26996       -1.54893        1.25362
N         -4.10111        0.57707       -0.11787
C         -3.43033        0.94976       -1.35287
H         -2.39344        0.60365       -1.33115
H         -3.92685        0.47121       -2.20278
H         -3.44123        2.04507       -1.51994
C         -5.50910        0.92848       -0.15771
H         -5.99315        0.43068       -1.00348
H         -6.00133        0.59798        0.76175
H         -5.66983        2.01932       -0.26285
C         -3.44125        1.17348        1.03322
H         -3.95393        0.87043        1.95098
H         -2.40894        0.81920        1.09843
H         -3.44333        2.28064        0.98630
