37
2msa1ma1eda_505.log	Energy: -1013348.5376816
S          2.14680       -1.02729       -0.67247
O          1.49027       -1.68469       -1.81048
O          1.50429       -1.32759        0.64177
O          2.32437        0.44908       -0.84820
C          3.80435       -1.68899       -0.57709
H          3.72755       -2.76602       -0.42571
H          4.31026       -1.46982       -1.51761
H          4.32138       -1.21679        0.25853
S         -2.48231       -0.92753       -0.38222
O         -1.81037        0.36175       -0.46944
O         -3.67132       -1.16384       -1.18041
O         -2.91475       -1.10970        1.17908
H         -3.86748       -1.27950        1.20253
C         -1.30142       -2.22565       -0.56407
H         -0.83016       -2.10775       -1.54245
H         -0.52536       -2.09988        0.19628
H         -1.83063       -3.17403       -0.47452
N          1.07927        0.43277        2.94596
H          1.49442       -0.27099        2.32869
C         -0.14650       -0.10734        3.54209
H          0.01528       -1.02404        4.12296
H         -0.60237        0.64195        4.19526
H         -0.86095       -0.33781        2.74726
H          1.75767        0.66291        3.66408
H         -0.03875        3.78653        1.02420
H          1.65086        3.50941        0.51976
H          0.44564        4.64242       -1.26518
H          0.86535        3.00636       -1.79021
H         -1.53091        3.88431       -2.13053
H         -1.43864        2.39909       -1.46289
H          0.69923        1.50221        1.57160
H         -0.46636        1.44439        0.36624
C          0.60741        3.24692        0.32818
C          0.22312        3.58292       -1.10715
N          0.47304        1.79534        0.58174
N         -1.20649        3.37744       -1.31614
H          1.14961        1.25815       -0.02454
