32
2msa2ma_116.log	Energy: -953959.2080532
S         -2.89362       -0.80966       -0.03855
O         -1.96704       -0.39975        1.05023
O         -2.32402       -1.77678       -0.98383
O         -3.47437        0.41037       -0.70698
H         -2.43516        1.55723       -0.59589
C         -4.28849       -1.60171        0.74798
H         -4.73114       -0.90282        1.45785
H         -5.00632       -1.87467       -0.02576
H         -3.92141       -2.49162        1.26005
S          1.74158        0.27581       -0.25029
O          0.88959        1.31931       -0.83297
O          2.31831        0.53888        1.06844
O          2.90395       -0.00972       -1.26348
H          3.84526       -0.02326       -0.75212
C          0.83010       -1.24001       -0.20859
H          0.00726       -1.10724        0.50006
H          0.41860       -1.43350       -1.19934
H          1.51155       -2.03135        0.10476
N         -1.67205        2.29398       -0.40944
H         -0.75366        1.84546       -0.58531
C         -1.74540        2.74752        0.99849
H         -0.92321        3.43129        1.21092
H         -2.70339        3.24029        1.16548
H         -1.67689        1.85540        1.62121
H         -1.77615        3.06271       -1.06733
N          5.07221       -0.05719        0.08868
H          5.93455        0.15453       -0.40398
C          5.15354       -1.35287        0.78078
H          5.97674       -1.40151        1.50035
H          4.21271       -1.51448        1.31052
H          5.27867       -2.14577        0.04058
H          4.90363        0.68722        0.76143
