42
2msa2eda_308.log	Energy: -1072754.6717312
S         -2.28428       -0.53829       -1.01991
O         -3.71279       -0.35399       -1.16802
O         -2.04395       -1.26249        0.35792
O         -1.42980        0.66046       -1.08285
H         -0.28244        1.22869        0.18556
C         -1.67613       -1.68970       -2.22466
H         -2.26740       -2.60188       -2.14323
H         -1.81161       -1.22713       -3.20310
H         -0.61914       -1.87286       -2.01198
S          1.51899       -1.81599        0.50642
O          2.69266       -0.99023        0.83660
O          1.25288       -2.00683       -0.92716
O          0.28940       -1.29709        1.23085
H         -1.04477       -1.31837        0.64727
C          1.80895       -3.42636        1.21753
H          2.69503       -3.84649        0.74098
H          1.96815       -3.30260        2.28856
H          0.93558       -4.04933        1.02329
H         -0.03115        2.85717        2.63969
H         -0.56622        3.46842        1.05525
H         -2.50513        2.90591        2.55760
H         -2.50498        1.96389        1.07049
H         -2.33577        0.95242        3.70086
H         -2.35280        0.09524        2.29438
H          1.19148        1.77723        0.79568
H          0.21621        0.66260        1.63606
C         -0.55791        2.59850        1.71800
C         -1.97688        2.11223        2.01863
N          0.19880        1.51533        1.05546
N         -1.92163        0.87154        2.78292
H          1.26671        0.65414       -1.57582
H          1.90171        1.35098       -3.06202
H          3.76606        1.12037       -1.62156
H          3.37510        2.84832       -1.62958
H          3.01885        0.90798        0.49806
H          3.55761        2.45426        0.59662
H         -0.15364        2.45629       -2.08915
H          0.87058        3.17694       -1.03099
C          1.70043        1.56973       -2.00767
C          3.02184        1.86202       -1.31009
N          0.81192        2.73048       -1.94030
N          2.86057        1.86109        0.15960
