29
2msa1a1ma_08.log	Energy: -929315.4115583
S         -2.52556       -0.29480       -0.18407
O         -3.85321       -0.79502        0.14844
O         -1.56966       -0.26801        0.98344
O         -2.50136        1.03974       -0.85544
H         -1.19659        1.90471       -0.50827
C         -1.79129       -1.43429       -1.35322
H         -2.37479       -1.39152       -2.27337
H         -0.75318       -1.14759       -1.53468
H         -1.84432       -2.43827       -0.92832
S          2.32572       -0.18113       -0.24259
O          1.80885        0.94015       -1.07200
O          1.74233       -1.49753       -0.61311
O          2.20987        0.09120        1.21745
H          1.04132       -1.16780        2.01303
C          4.06706       -0.27709       -0.61230
H          4.52653        0.67241       -0.33753
H          4.49551       -1.09508       -0.03305
H          4.17600       -0.46321       -1.68078
N          0.34147       -1.86590        1.70930
H          0.74725       -2.21698        0.82617
H         -0.54532       -1.32098        1.45560
H          0.17940       -2.59468        2.39604
N         -0.30867        2.43021       -0.25455
H          0.50616        1.85433       -0.58030
C         -0.23124        2.64719        1.20858
H          0.73358        3.08594        1.46179
H         -1.04659        3.30021        1.52011
H         -0.34135        1.67544        1.68596
H         -0.29744        3.30867       -0.76753
