41
2msa1dma1tma_130.log	Energy: -1027936.9731105
S         -0.06545       -1.78106        0.64066
O          0.10068       -3.20902        0.38730
O         -0.52663       -1.04184       -0.59967
O          1.15541       -1.10373        1.18607
H          2.22312       -0.66502        0.16145
C         -1.32987       -1.52876        1.86268
H         -2.28238       -1.84830        1.43321
H         -1.06371       -2.11671        2.74141
H         -1.34572       -0.46216        2.09394
S          0.03160        2.27454        0.31781
O          1.48903        2.40690        0.31948
O         -0.62146        1.80399        1.53098
O         -0.41103        1.41160       -0.91857
H         -0.46271        0.38431       -0.71003
C         -0.66730        3.84088       -0.15001
H         -0.40886        4.55175        0.63538
H         -0.23417        4.14488       -1.10249
H         -1.74777        3.72274       -0.22771
N         -3.60608       -0.88413       -0.50312
C         -3.70530        0.51115       -0.11421
C         -4.60032       -1.26980       -1.48691
H         -2.67096       -1.06988       -0.85499
H         -4.65997        0.68162        0.39703
H         -2.90051        0.76241        0.58235
H         -3.65130        1.21234       -0.96776
H         -5.60109       -1.19252       -1.04634
H         -4.58790       -0.64483       -2.39907
H         -4.44329       -2.31130       -1.78000
N          3.02229       -0.56030       -0.54371
C          4.01966        0.36594        0.04145
H          3.52621        1.32005        0.22793
H          4.37660       -0.05432        0.98230
H          4.85262        0.48600       -0.65598
C          3.54893       -1.93530       -0.71466
H          3.91224       -2.29538        0.24798
H          2.73531       -2.58214       -1.04643
H          4.35776       -1.92729       -1.44904
C          2.44964       -0.03351       -1.80699
H          1.62437       -0.68003       -2.10899
H          2.07002        0.97063       -1.62215
H          3.22948       -0.01817       -2.57238
