42
2msa2eda_305.log	Energy: -1072752.9863914
S         -0.88212       -2.31643        0.60008
O         -2.17158       -1.57388        0.55262
O         -0.21439       -2.28373        1.90454
O          0.01387       -1.87125       -0.52728
C         -1.28533       -4.01270        0.22511
H         -1.96726       -4.37291        0.99566
H         -1.75749       -4.04746       -0.75655
H         -0.35891       -4.58743        0.23082
S          2.69443        0.28517       -0.57971
O          2.32557        1.03954        0.61647
O          2.13889        0.76585       -1.84471
O          2.42331       -1.24317       -0.38951
H          1.41271       -1.50043       -0.39821
C          4.46621        0.23891       -0.70753
H          4.80098        1.26889       -0.83371
H          4.86699       -0.18967        0.21057
H          4.73379       -0.36434       -1.57452
H         -0.80858        0.46642        3.05868
H          0.41149        0.42211        1.77832
H          0.79786        2.38050        3.25250
H          0.41333        2.87254        1.60608
H         -1.41339        3.00203        3.89652
H         -1.02195        4.18376        2.83940
H         -1.91156        0.08322        1.01288
H         -2.21444        1.69684        1.47873
C         -0.42597        0.99104        2.17914
C         -0.00621        2.41480        2.50695
N         -1.50513        1.03141        1.16275
N         -1.18031        3.18711        2.92628
H         -1.14063        1.36202        0.20020
H         -0.88012        0.85061       -3.30801
H         -0.83128       -0.26550       -1.93407
H         -3.09566       -0.15527       -2.85910
H         -3.07414        0.46646       -1.21335
H         -3.15726        2.12695       -3.63239
H         -4.26923        2.04747       -2.44128
H          0.31596        1.78087       -1.47657
H         -1.08774        2.63974       -1.66409
C         -1.21969        0.69844       -2.27243
C         -2.74056        0.67749       -2.23454
N         -0.69782        1.74414       -1.37938
N         -3.27626        1.98279       -2.63416
