29
2msa1a1ma_97.log	Energy: -929298.7554992
S          1.63794        0.85566        0.17650
O          0.75958        0.69092       -1.03883
O          1.29463       -0.08686        1.25136
O          1.62275        2.29095        0.59243
H          0.23988        2.91544        0.05756
C          3.29267        0.49206       -0.35701
H          3.33573       -0.57589       -0.59089
H          3.51868        1.11255       -1.22399
H          3.96163        0.72673        0.47180
S         -2.37992       -0.37863        0.03033
O         -3.67718       -0.89905       -0.33590
O         -2.28595        1.04934        0.39314
O         -1.39111       -0.66416       -1.16111
H         -0.50991       -0.15704       -1.07016
C         -1.69977       -1.31039        1.37927
H         -2.33889       -1.13458        2.24533
H         -1.71555       -2.36241        1.09356
H         -0.68041       -0.95724        1.55668
N         -0.69030        3.08837       -0.43480
H         -1.06843        4.01201       -0.24454
H         -1.35302        2.33945       -0.12467
H         -0.52385        2.96295       -1.43169
N          2.47597       -2.71081        0.15235
H          2.86964       -3.54460        0.57342
C          1.35716       -3.04626       -0.72440
H          0.51680       -3.55465       -0.22671
H          0.96873       -2.13105       -1.17821
H          1.70770       -3.69063       -1.53571
H          2.16128       -2.09812        0.90030
