40
2msa1dma1eda_124.log	Energy: -1038022.6069338
S         -1.36836       -1.83993       -0.36420
O         -2.45215       -1.39587       -1.24047
O         -1.48344       -1.38158        1.04754
O         -0.01003       -1.47997       -0.92244
C         -1.39968       -3.62148       -0.30504
H         -2.36670       -3.92571        0.09604
H         -1.26834       -3.99553       -1.32052
H         -0.59094       -3.95943        0.34335
S          2.77906       -0.06522        0.38966
O          2.27151        0.82622        1.44059
O          2.78139        0.46542       -0.96915
O          2.04760       -1.44313        0.44487
H          1.15554       -1.46646       -0.12515
C          4.42165       -0.55944        0.84705
H          5.02909        0.34553        0.87640
H          4.37706       -1.02811        1.82970
H          4.79228       -1.25413        0.09408
N         -0.07823        1.60224       -1.61289
C          0.70306        2.82152       -1.80453
C         -1.27882        1.55264       -2.44642
H          0.50697        0.79314       -1.81441
H          0.11898        3.68457       -1.46519
H          1.62193        2.75753       -1.21850
H          0.97163        2.98742       -2.85789
H         -1.95507        2.36381       -2.15328
H         -1.04954        1.67459       -3.51514
H         -1.78851        0.59873       -2.29331
H         -1.43481        2.31797        2.65564
H         -1.16040        3.23698        1.15242
H         -3.51593        2.83459        1.33261
H         -2.91689        1.79123        0.03714
H         -4.44651        0.77538        1.78205
H         -3.05462       -0.05590        1.57822
H          0.41229        1.32850        1.48178
H         -0.86117        0.28394        1.25693
C         -1.48229        2.27659        1.56533
C         -2.90559        1.94925        1.12848
N         -0.52916        1.25116        1.07835
N         -3.44126        0.83212        1.89404
H         -0.39591        1.35210        0.00634
