41
2msa1dma1tma_104.log	Energy: -1027939.8674728
S         -1.96140        0.85544       -1.00626
O         -1.81611        1.39393        0.36404
O         -3.31840        0.46764       -1.38526
O         -0.98146       -0.30048       -1.20174
C         -1.39319        2.10731       -2.14232
H         -2.04513        2.97403       -2.03061
H         -0.36257        2.36533       -1.89560
H         -1.46022        1.70197       -3.15198
S          2.42536       -0.91625       -0.70178
O          3.28790       -1.59297       -1.64982
O          1.55078       -1.73003        0.14953
O          1.52672        0.14241       -1.46482
H          0.53554       -0.05129       -1.34544
C          3.40163        0.13657        0.33937
H          4.06387       -0.51396        0.91242
H          3.98285        0.79991       -0.30190
H          2.71128        0.69351        0.98477
N          0.93412        1.94910        1.51495
C          1.39114        3.03005        0.65344
C          0.65988        2.40132        2.87004
H          0.06867        1.58620        1.11810
H          2.33751        3.43259        1.03396
H          1.57465        2.63721       -0.35151
H          0.67352        3.86487        0.58238
H          1.58695        2.74903        3.33976
H         -0.07449        3.22314        2.91736
H          0.27782        1.56779        3.46746
N         -1.44570       -1.91399        0.95148
C         -0.81312       -1.26707        2.13125
H          0.26720       -1.28684        1.99199
H         -1.16462       -0.23547        2.17193
H         -1.10716       -1.81147        3.03175
C         -2.92802       -1.81704        1.01091
H         -3.20654       -0.77062        1.13300
H         -3.34480       -2.18545        0.07378
H         -3.28496       -2.41365        1.85328
C         -0.99380       -3.31560        0.76642
H         -1.45882       -3.71357       -0.13608
H          0.08899       -3.31739        0.65291
H         -1.30046       -3.90305        1.63495
H         -1.14388       -1.36291        0.10677
