35
2msa1ma1dma_211.log	Energy: -978620.8870305
S          1.22791       -1.83831       -0.16361
O          2.10073       -2.37746       -1.20058
O          0.57150       -0.53248       -0.56033
O          1.87522       -1.64544        1.16811
H          1.87839       -0.07127        1.55948
C         -0.11231       -2.98550        0.09864
H         -0.59261       -3.16958       -0.86318
H          0.31627       -3.90709        0.49324
H         -0.82055       -2.54251        0.80091
S         -2.57264        0.28207       -0.00865
O         -2.08266        1.59390        0.40920
O         -2.60183       -0.77358        0.99733
O         -1.79623       -0.20237       -1.29257
H         -0.80708       -0.38682       -1.05054
C         -4.19224        0.47131       -0.71464
H         -4.84802        0.80789        0.08894
H         -4.13915        1.21635       -1.50774
H         -4.51811       -0.49438       -1.09976
N          1.86883        0.94956        1.83692
H          2.61650        1.08757        2.51313
C          0.55074        1.32093        2.40174
H          0.59032        2.34176        2.78500
H         -0.19913        1.26020        1.61327
H          0.28873        0.63088        3.20390
H          2.07691        1.53301        0.96045
N          2.29021        2.42546       -0.48291
C          0.95722        2.73637       -1.01469
C          3.06607        1.57584       -1.39603
H          2.79468        3.29560       -0.33702
H          0.39823        1.80602       -1.12082
H          0.41678        3.37826       -0.31492
H          1.00615        3.23316       -1.99399
H          2.54804        0.62171       -1.51613
H          3.19131        2.03544       -2.38656
H          4.05403        1.38432       -0.96888
