38
2msa2dma_213.log	Energy: -1003270.7702291
S          1.72330       -1.30832       -0.49582
O          3.04190       -1.26679       -1.10681
O          0.86199       -2.46244       -0.72724
O          0.96651        0.00605       -0.98565
H         -0.02646       -0.09027       -0.87145
C          1.88201       -1.04611        1.25390
H          2.37460       -1.93132        1.65953
H          2.50314       -0.15643        1.39507
H          0.87851       -0.93431        1.67045
S         -2.22881       -0.86916        0.46454
O         -1.42303       -0.80709        1.68605
O         -1.62297       -0.11085       -0.68248
O         -3.64415       -0.38776        0.65026
H         -3.73397        1.06876        0.27520
C         -2.34903       -2.56696       -0.04332
H         -1.33224       -2.91151       -0.24212
H         -2.80814       -3.12613        0.77215
H         -2.96134       -2.61315       -0.94373
N         -3.69574        2.11875       -0.01065
C         -3.63346        2.19548       -1.49061
C         -2.52297        2.72606        0.66762
H         -4.55226        2.55420        0.32811
H         -2.77507        1.60233       -1.80793
H         -4.54575        1.76432       -1.90310
H         -3.53010        3.23601       -1.80350
H         -1.62896        2.22189        0.30038
H         -2.47978        3.79418        0.44779
H         -2.61429        2.55759        1.74065
N          4.18321        1.23579        0.35613
C          5.52290        1.55789        0.81174
C          3.53031        2.34412       -0.31980
H          4.20467        0.43149       -0.26534
H          5.47199        2.33446        1.58377
H          5.98427        0.67261        1.25804
H          6.18670        1.92788        0.00946
H          3.34265        3.15157        0.39845
H          4.12629        2.76480       -1.14972
H          2.57072        2.00720       -0.72011
