40
2msa1dma1eda_78.log	Energy: -1038033.0722920
S         -2.71604        0.74702       -0.27984
O         -2.82455       -0.71773       -0.51889
O         -2.01549        1.46546       -1.37856
O         -2.13869        1.06545        1.05224
H         -0.35323        2.01583        0.85036
C         -4.39427        1.35078       -0.27983
H         -4.83709        1.12413       -1.24969
H         -4.93690        0.84774        0.52068
H         -4.36832        2.42740       -0.11063
S          2.27601       -1.24262       -0.36910
O          3.59233       -1.40876        0.24244
O          1.39629       -0.27918        0.38664
O          1.52171       -2.50407       -0.62074
H         -0.01521       -2.39130        0.01799
C          2.52058       -0.48134       -1.96791
H          3.01547        0.47835       -1.80345
H          3.15061       -1.14090       -2.56536
H          1.54788       -0.34764       -2.44408
N         -0.95717       -2.42345        0.48199
C         -0.79314       -2.07640        1.90968
C         -1.55146       -3.75373        0.24886
H         -1.57363       -1.70425        0.03851
H         -0.16716       -2.83063        2.38968
H         -0.30612       -1.10438        1.96340
H         -1.77523       -2.03261        2.38246
H         -0.89189       -4.51886        0.66130
H         -2.53106       -3.80152        0.72695
H         -1.66098       -3.90498       -0.82488
H          1.51012        3.43015       -0.98655
H          0.47035        4.16755        0.25717
H          2.75625        4.15972        1.04443
H          1.85168        3.00220        2.01901
H          4.13525        2.34851        0.95944
H          2.93721        1.24224        0.83145
H         -0.43915        2.05576       -0.75239
H          0.79922        1.20251        0.00241
C          1.10637        3.31057        0.02080
C          2.25889        3.18571        1.01083
N          0.25255        2.09990        0.02270
N          3.21715        2.18378        0.56605
