42
2msa2eda_166.log	Energy: -1072759.9902630
S         -1.61279       -1.87623       -0.79710
O         -1.29412       -3.25737       -1.14786
O         -1.04767       -1.43377        0.52384
O         -3.07885       -1.54774       -0.81945
H         -3.46649       -0.35852        0.06272
C         -0.88348       -0.80792       -2.02636
H          0.19038       -0.99046       -2.07247
H         -1.35004       -1.04263       -2.98371
H         -1.05023        0.23530       -1.75009
S          1.38209        1.95930       -0.63866
O         -0.01095        2.32873       -0.98004
O          1.96660        0.92850       -1.52028
O          1.53883        1.60338        0.81047
H          1.63221       -0.06410        1.03330
C          2.35279        3.44316       -0.86638
H          2.24659        3.75570       -1.90549
H          1.97203        4.21096       -0.19245
H          3.39409        3.21406       -0.63882
H         -3.71609        1.04198        2.69980
H         -2.76644       -0.42117        2.29002
H         -1.35075        1.71892        2.59528
H         -1.13118        0.86354        1.07105
H         -2.42951        3.42265        1.40929
H         -1.52389        2.80469        0.16723
H         -4.82193        0.29328        0.83519
H         -3.67662        1.36262        0.21579
C         -3.06351        0.57392        1.95712
C         -1.84250        1.45115        1.65367
N         -3.82845        0.44771        0.68655
N         -2.25574        2.59723        0.84841
H          2.05683       -2.78281       -0.08526
H          2.27864       -1.19915       -0.88620
H          4.48688       -2.18200       -0.24353
H          4.15866       -0.65673        0.58556
H          3.96667       -3.32091        1.79254
H          4.79149       -2.01426        2.32832
H          0.53292       -1.32957        0.90380
H          1.85454       -1.44821        1.98851
C          2.40414       -1.75368        0.04497
C          3.85151       -1.70495        0.51364
N          1.54836       -1.11250        1.07118
N          3.95126       -2.30763        1.84505
