35
2msa1a1tma_39.log	Energy: -978624.6582620
S         -1.53232       -1.70156       -0.08127
O         -2.73710       -1.38935       -0.87326
O         -1.49308       -1.04655        1.24365
O         -0.28166       -1.42876       -0.87476
C         -1.53116       -3.46353        0.20414
H         -2.43039       -3.71511        0.76706
H         -1.52961       -3.96420       -0.76413
H         -0.63655       -3.71662        0.77412
S          2.74488        0.01431        0.10111
O          2.65317        0.47500        1.48043
O          2.26294        0.92358       -0.93810
O          2.08383       -1.40044       -0.06276
H          1.08933       -1.37538       -0.35866
C          4.43710       -0.41417       -0.24058
H          5.02188        0.50027       -0.13653
H          4.75658       -1.15892        0.48799
H          4.49998       -0.80385       -1.25599
N         -3.52140        1.02178        0.60152
H         -4.42760        1.44077        0.78046
H         -3.22571        0.50528        1.42905
H         -3.62151        0.29344       -0.11143
N         -1.19315        2.31466       -0.09098
C         -0.75805        1.78423       -1.41066
H         -0.59145        0.70964       -1.33016
H         -1.54451        1.98732       -2.13955
H          0.17685        2.26710       -1.69821
C         -1.43224        3.77139       -0.14556
H         -2.15125        3.98778       -0.93718
H         -1.83411        4.10523        0.81247
H         -0.49049        4.28543       -0.35005
C         -0.24232        1.95330        0.99457
H         -0.59450        2.40135        1.92538
H         -0.23321        0.86838        1.10161
H          0.75450        2.31740        0.74504
H         -2.13213        1.85041        0.15443
