38
2msa2dma_70.log	Energy: -1003285.5657415
S          0.75026        1.80944       -0.02545
O          1.58921        2.67290       -0.85294
O          1.44238        1.09181        1.06294
O         -0.01834        0.78911       -0.87360
C         -0.52289        2.81115        0.72171
H         -0.02798        3.53026        1.37516
H         -1.06260        3.32827       -0.07264
H         -1.19105        2.16036        1.28860
S         -2.93386       -0.38772        0.04320
O         -2.72782        0.21272        1.35563
O         -2.33642       -1.70433       -0.18516
O         -2.50095        0.60607       -1.09739
H         -1.47511        0.75191       -1.05457
C         -4.67409       -0.47896       -0.30108
H         -5.10322       -1.16062        0.43395
H         -5.10020        0.51841       -0.19720
H         -4.80778       -0.86446       -1.31129
N          0.92663       -1.66742        0.01359
C          0.54088       -1.92167        1.41838
C          0.59465       -2.76370       -0.91608
H          0.47490       -0.78616       -0.31007
H          1.09075       -2.79119        1.78599
H          0.79632       -1.03230        1.99418
H         -0.53341       -2.10247        1.46368
H          1.11536       -3.67121       -0.60252
H         -0.48396       -2.92066       -0.90965
H          0.92007       -2.48160       -1.91861
H          1.97262       -1.48053       -0.03308
N          3.69097       -1.19643       -0.18793
C          4.17513       -0.68128        1.09778
C          3.84470       -0.21474       -1.26854
H          4.21663       -2.03191       -0.42851
H          3.54978        0.16740        1.38541
H          4.08441       -1.45946        1.86103
H          5.22411       -0.35447        1.04926
H          3.26600        0.68127       -1.03131
H          4.89285        0.08160       -1.41756
H          3.46097       -0.63396       -2.20275
