38
2msa1ma1tma_87.log	Energy: -1003276.7272581
S         -1.10887        1.01767       -0.35028
O         -0.25031        1.24594        0.82308
O         -2.31561        1.87166       -0.41706
O         -1.50577       -0.44241       -0.48081
H         -2.92450       -0.58292       -0.06688
C         -0.12484        1.35197       -1.79618
H          0.15344        2.40647       -1.76278
H          0.76100        0.71292       -1.76258
H         -0.72777        1.14537       -2.68063
S          2.88645       -1.36218       -0.17343
O          3.46678       -2.63985       -0.54408
O          2.62241       -0.37693       -1.23149
O          3.78951       -0.67820        0.91769
H          3.84735        0.37468        0.74285
C          1.36821       -1.65853        0.70150
H          0.66280       -2.09669       -0.00547
H          1.58574       -2.34724        1.51827
H          0.97380       -0.70684        1.06303
N          3.83538        1.81660        0.35035
H          4.74267        2.26872        0.40593
C          2.80078        2.58996        1.05546
H          2.71292        3.61637        0.68212
H          1.83630        2.08983        0.93868
H          3.04274        2.62195        2.12012
H          3.59687        1.71305       -0.63437
N         -3.95986       -0.67946        0.26926
C         -4.05031        0.05797        1.55244
H         -3.32887       -0.36752        2.25139
H         -3.78922        1.09947        1.36172
H         -5.06337       -0.02945        1.95409
C         -4.80760       -0.05981       -0.77508
H         -4.46574        0.96691       -0.91154
H         -4.67539       -0.61145       -1.70676
H         -5.85565       -0.09272       -0.46549
C         -4.22807       -2.12256        0.43517
H         -4.07545       -2.62299       -0.52169
H         -3.52897       -2.52795        1.16755
H         -5.25568       -2.27342        0.77597
