38
2msa1ma1tma_120.log	Energy: -1003274.6943847
S         -3.43405        0.02070       -0.14237
O         -4.80419       -0.39620        0.08195
O         -2.63509       -0.64541       -1.16768
O         -2.67187       -0.08489        1.25088
H         -1.72037       -0.36840        1.13769
C         -3.40595        1.76934       -0.45495
H         -3.94155        1.93092       -1.39173
H         -3.91967        2.26428        0.36970
H         -2.35945        2.08627       -0.53572
S          0.74411       -1.41436        0.18021
O         -0.15332       -0.82174        1.20004
O          1.94855       -2.04833        0.74943
O          1.14165       -0.38384       -0.85666
H          2.52625        0.12461       -0.45914
C         -0.18193       -2.64937       -0.69790
H         -0.46111       -3.41757        0.02400
H         -1.06823       -2.16932       -1.11715
H          0.46067       -3.06345       -1.47485
N         -0.12593        2.36612       -0.49170
H          0.22249        1.45552       -0.78381
C          0.21041        2.65486        0.89382
H          1.27404        2.89314        1.07786
H         -0.37556        3.50561        1.25608
H         -0.04648        1.78511        1.50386
H          0.20174        3.07918       -1.13179
N          3.51474        0.47622       -0.20714
C          4.45250       -0.56630       -0.68678
H          4.18191       -1.50416       -0.20020
H          4.33654       -0.67162       -1.76605
H          5.47822       -0.27788       -0.44379
C          3.69287        1.76888       -0.90223
H          3.57512        1.61153       -1.97495
H          2.92387        2.46046       -0.55426
H          4.68583        2.17175       -0.68870
C          3.56901        0.62068        1.26903
H          2.80437        1.33407        1.57749
H          3.35132       -0.35114        1.71233
H          4.56003        0.97791        1.55995
