42
2msa2eda_537.log	Energy: -1072744.6185526
S         -0.72153        1.85549       -0.38898
O         -0.67531        0.71308       -1.36076
O         -0.23146        1.49635        0.94918
O         -2.10709        2.43069       -0.35774
H         -3.05717        1.54496        0.49436
C          0.33112        3.12169       -1.05178
H          1.34466        2.70298       -1.08646
H         -0.03267        3.38013       -2.04657
H          0.27915        3.98088       -0.38202
S          0.79049       -2.34738       -0.34330
O          0.20303       -3.42591       -1.12269
O          0.07115       -1.91532        0.85737
O          1.07667       -1.09660       -1.26750
H          0.33504       -0.38403       -1.25766
C          2.45827       -2.75175        0.10424
H          2.41052       -3.64364        0.73045
H          3.01484       -2.95506       -0.81087
H          2.85553       -1.89146        0.65463
H          4.75004        0.60285        0.32170
H          4.54688        2.36007        0.16715
H          3.88214        1.54734        2.37839
H          2.51306        2.28963        1.53136
H          2.35650       -0.06601        2.68683
H          1.49747        0.28047        1.36320
H          3.66959        1.28270       -1.76991
H          2.64114        0.38510       -0.88180
C          4.00359        1.41115        0.25168
C          3.18796        1.42170        1.53977
N          3.12794        1.27882       -0.91203
N          2.45102        0.16564        1.70466
H         -5.22784       -0.49151        0.33505
H         -4.44581        0.42771       -0.98234
H         -3.62697       -2.00675       -0.79175
H         -2.34945       -0.79278       -0.67431
H         -3.34932       -2.44319        1.48445
H         -1.84174       -1.83145        1.21186
H         -4.47551        1.40975        1.43140
H         -3.24728        0.27084        1.64743
C         -4.28029       -0.09333       -0.03819
C         -3.22698       -1.20226       -0.16531
N         -3.75168        0.87180        0.96334
N         -2.83929       -1.62350        1.17782
