29
2msa1a1ma_68.log	Energy: -929302.6160441
S         -2.55949        0.02139        0.20236
O         -3.83130        0.52439        0.67944
O         -2.33236       -1.41456        0.09349
O         -1.43145        0.65117        1.13440
H         -0.58780        0.09881        1.10120
C         -2.20176        0.76000       -1.37856
H         -2.93558        0.37320       -2.08695
H         -2.30312        1.84075       -1.27698
H         -1.18839        0.46867       -1.66408
S          1.34586       -1.18762       -0.22027
O          0.88406       -0.41858       -1.39608
O          0.83765       -0.58386        1.06657
O          2.82298       -1.33837       -0.14782
H          3.41081        0.05746        0.82700
C          0.63706       -2.81178       -0.32915
H         -0.44801       -2.69288       -0.31685
H          0.98121       -3.26283       -1.25994
H          0.97873       -3.38599        0.53196
N          3.15288        0.94309        1.31288
H          2.35795        0.67468        1.90028
H          2.76510        1.60768        0.52500
H          3.91504        1.34027        1.85279
N          1.98209        2.27540       -0.73360
H          2.54810        2.83979       -1.36024
C          0.77936        3.01351       -0.31655
H          0.18663        3.37205       -1.16556
H          0.14778        2.35544        0.28480
H          1.06499        3.87406        0.29433
H          1.69526        1.43697       -1.24954
