38
2msa2dma_184.log	Energy: -1003276.7481040
S          1.54377       -0.77485       -0.15165
O          0.69954       -0.69065       -1.34683
O          1.90380        0.57335        0.41750
O          2.79538       -1.58571       -0.34421
H          4.12394       -0.63766       -0.09333
C          0.61312       -1.61170        1.11374
H         -0.33272       -1.08184        1.26337
H          0.42649       -2.62753        0.76260
H          1.20890       -1.62885        2.02670
S         -3.28254       -0.72741        0.08610
O         -4.54525       -1.25068        0.60123
O         -2.33745       -0.20341        1.10710
O         -3.47591        0.31661       -0.99950
H         -2.70007        1.49883       -0.73377
C         -2.44139       -2.06570       -0.74756
H         -2.27206       -2.85867       -0.01729
H         -3.09163       -2.42336       -1.54642
H         -1.49652       -1.69178       -1.14831
N         -2.15533        2.42887       -0.47215
C         -0.71675        2.11721       -0.29687
C         -2.79189        2.97760        0.74509
H         -2.28062        3.07090       -1.25246
H         -0.62621        1.44045        0.55008
H         -0.34446        1.60214       -1.18224
H         -0.15452        3.03542       -0.11371
H         -2.72354        2.20975        1.51729
H         -2.28101        3.89103        1.05825
H         -3.84243        3.18086        0.53460
N          4.52667        0.31845        0.11913
C          5.05305        0.92163       -1.11948
C          5.46316        0.28674        1.25474
H          3.61335        0.76824        0.37852
H          5.93250        0.36646       -1.44957
H          4.27590        0.86546       -1.88219
H          5.31895        1.96413       -0.93629
H          6.34590       -0.29500        0.98391
H          5.75933        1.30457        1.51481
H          4.96488       -0.17925        2.10502
