34
2msa1a1eda_262.log	Energy: -988696.5576161
S          0.44888        1.95977        0.30623
O          0.11688        1.19349        1.51253
O          0.32150        1.10875       -0.95050
O          1.78869        2.59938        0.32004
H          2.97727        1.54450       -0.65242
C         -0.77150        3.23835        0.11706
H         -1.74109        2.74440        0.02792
H         -0.72960        3.87313        1.00259
H         -0.53660        3.80757       -0.78223
S         -2.64713       -0.69830       -0.24276
O         -3.56189       -1.71182       -0.72821
O         -3.01157        0.71120       -0.29680
O         -1.27817       -0.90260       -1.03893
H         -0.70981       -0.06617       -1.00021
C         -2.17666       -1.09284        1.42877
H         -3.07271       -0.99589        2.04335
H         -1.81185       -2.12056        1.44441
H         -1.40597       -0.38323        1.73827
N          2.98537        0.80010       -1.37504
H          3.28019       -0.15480       -0.96883
H          3.55698        1.06682       -2.17087
H          1.97829        0.75596       -1.62379
H          3.25414       -2.88824        1.39186
H          3.24283       -1.13349        1.64267
H          0.95955       -2.11171        1.78255
H          1.09163       -0.91121        0.51587
H          0.87716       -3.78724        0.11073
H          0.13201       -2.54558       -0.67057
H          4.53460       -1.98303       -0.34574
H          3.07034       -2.35272       -1.00042
C          2.93503       -1.93004        0.95817
C          1.41475       -1.91446        0.80236
N          3.55509       -1.71569       -0.36297
N          1.00405       -2.84660       -0.24538
