35
2msa1a1tma_40.log	Energy: -978624.6351320
S          1.87332       -1.49784        0.04573
O          2.81724       -1.00254        1.06497
O          1.96421       -0.79430       -1.25295
O          0.46329       -1.51757        0.57133
C          2.27693       -3.21026       -0.25389
H          3.29912       -3.25669       -0.63032
H          2.18741       -3.74835        0.68986
H          1.57648       -3.60141       -0.99221
S         -2.75210       -0.30325        0.06949
O         -2.91419        1.02605       -0.51629
O         -2.52612       -0.38723        1.50531
O         -1.63209       -1.07971       -0.71602
H         -0.76618       -1.26690       -0.17156
C         -4.18072       -1.27064       -0.36457
H         -5.04664       -0.78356        0.08487
H         -4.26951       -1.28927       -1.45056
H         -4.04878       -2.27476        0.03741
N          3.33012        1.62259       -0.14507
H          4.15126        2.21765       -0.12229
H          3.32615        1.09942       -1.02009
H          3.42583        0.89209        0.56627
N          0.69611        2.39845        0.01558
C          0.56541        3.86679        0.11585
H          1.02895        4.20656        1.04322
H          1.06718        4.33040       -0.73493
H         -0.49352        4.13464        0.11122
C          0.12786        1.88441       -1.26049
H          0.58655        2.43403       -2.08473
H          0.38096        0.82711       -1.35088
H         -0.95539        2.01627       -1.25483
C          0.10864        1.72036        1.20199
H          0.26262        0.64379        1.11852
H          0.61170        2.09002        2.09680
H         -0.96040        1.93454        1.24855
H          1.74559        2.16311       -0.00545
