32
2msa2ma_194.log	Energy: -953957.3711949
S         -2.72664        0.08256        0.28094
O         -2.40584        0.58509       -1.07163
O         -2.32574        0.94466        1.38113
O         -2.20909       -1.37421        0.44463
H         -1.25284       -1.55763        0.03977
C         -4.47672       -0.20244        0.36076
H         -4.75927       -0.86224       -0.45867
H         -4.69877       -0.65672        1.32615
H         -4.96415        0.76841        0.26959
S          1.23253       -1.11279       -0.29776
O         -0.00565       -1.91867       -0.55936
O          1.13725       -0.33339        0.94978
O          1.58237       -0.26064       -1.47592
H          0.69220        1.09300       -1.47373
C          2.55553       -2.28624       -0.13632
H          2.29217       -2.97375        0.66782
H          2.65751       -2.81603       -1.08325
H          3.45803       -1.72146        0.11348
N          4.10236        0.39340        1.27719
H          3.15547        0.23252        1.61223
C          4.10701        1.48357        0.30745
H          3.76447        2.45339        0.70554
H          5.11759        1.62172       -0.08894
H          3.45955        1.20757       -0.53026
H          4.68670        0.61325        2.07571
N          0.01491        1.89866       -1.33135
H          0.05350        2.51809       -2.13722
C          0.31484        2.60803       -0.06087
H         -0.45107        3.36030        0.12491
H          0.31591        1.86515        0.73665
H          1.29993        3.06846       -0.13679
H         -0.93242        1.46493       -1.28986
