35
2msa1ma1dma_07.log	Energy: -978643.1273968
S         -2.80473       -0.07785       -0.20055
O         -2.46354        1.22413       -0.83957
O         -2.17589       -0.23064        1.13086
O         -2.53421       -1.24783       -1.08583
C         -4.57176       -0.05410        0.03632
H         -4.81616        0.78704        0.68526
H         -5.04406        0.06123       -0.93926
H         -4.86518       -0.99640        0.49909
S          2.78622       -0.27632        0.00775
O          2.91699       -1.60087        0.62973
O          2.90594        0.89308        0.89285
O          1.49583       -0.19224       -0.79813
C          4.08160       -0.13371       -1.21388
H          5.03698       -0.19103       -0.69143
H          3.98459       -0.95435       -1.92480
H          3.97759        0.82769       -1.71702
N         -0.13076       -2.33773       -0.40146
H          0.16984       -3.11214       -0.98822
H          0.52600       -1.53564       -0.57687
C         -0.11611       -2.70350        1.03787
H         -0.58958       -1.88657        1.58187
H         -0.69131       -3.61832        1.18258
H          0.91923       -2.82991        1.35329
H         -1.08529       -2.01688       -0.70457
N          0.02034        1.95775        0.09754
C         -0.00215        2.09097        1.57220
C          0.66769        3.08629       -0.59896
H          0.54716        1.09437       -0.16311
H         -0.49015        3.03177        1.83383
H         -0.57668        1.25482        1.97060
H          1.02574        2.06534        1.93524
H          0.13022        4.00921       -0.37497
H          1.70154        3.15586       -0.25712
H          0.64193        2.89561       -1.67206
H         -0.94998        1.80431       -0.26075
