43
2msa1eda1tma_52.log	Energy: -1062687.0066353
S          2.84012       -0.89396        0.46024
O          2.03478       -2.08872        0.83626
O          2.27997        0.36473        0.98298
O          3.05476       -0.82903       -1.02395
H          1.92258        0.15432       -1.71239
C          4.45407       -1.12919        1.17591
H          4.87969       -2.04515        0.76615
H          5.06743       -0.26606        0.91688
H          4.33249       -1.20843        2.25626
S         -0.83250        2.59765        0.21434
O         -1.89078        3.60073        0.19126
O          0.19781        2.76533       -0.86420
O         -1.34778        1.18355        0.19034
H         -0.51060       -0.22886        0.00717
C          0.05972        2.75003        1.75072
H         -0.65106        2.60647        2.56542
H          0.84543        1.99238        1.76586
H          0.48505        3.75339        1.78935
H         -0.94617        0.41482       -2.34910
H          0.04647       -0.45691       -3.53774
H         -0.87380       -2.08765       -2.08597
H          0.86238       -1.99563       -1.74587
H         -1.31340       -1.66777        0.03502
H          0.39918       -1.63303        0.35181
H          1.47276        1.17320       -2.96624
H          0.81158        1.49333       -1.47823
C         -0.03518       -0.17334       -2.48637
C         -0.08517       -1.45756       -1.66663
N          1.12188        0.69864       -2.13709
N         -0.37560       -1.24495       -0.22570
N         -3.01560       -1.88293        0.38068
C         -3.68852       -1.07137       -0.63493
H         -3.24546       -0.07107       -0.64610
H         -3.56174       -1.53598       -1.61841
H         -4.76828       -0.97797       -0.43527
C         -3.51859       -3.25165        0.39604
H         -3.37919       -3.70989       -0.58757
H         -2.96439       -3.84032        1.13224
H         -4.59098       -3.29492        0.64964
C         -3.13667       -1.25377        1.69822
H         -2.57905       -1.83906        2.43519
H         -2.71764       -0.24499        1.65184
H         -4.18806       -1.19025        2.02227
