43
2msa1eda1tma_177.log	Energy: -1062673.8061327
S         -2.61514       -0.44240       -0.76088
O         -3.38664       -1.12346        0.28849
O         -1.70375       -1.27591       -1.54829
O         -1.88036        0.75074       -0.13867
C         -3.77793        0.30256       -1.89080
H         -4.34160       -0.50509       -2.35867
H         -4.43949        0.95736       -1.32391
H         -3.21890        0.86270       -2.64076
S          1.09697        2.43253        0.18300
O          2.50701        2.16015       -0.01992
O          0.49019        2.11585        1.47722
O          0.28708        1.72749       -0.96560
H         -0.60314        1.30715       -0.65394
C          0.80230        4.15669       -0.14918
H          1.36838        4.73148        0.58454
H          1.15128        4.37234       -1.15888
H         -0.26622        4.34863       -0.05237
H         -1.03477       -1.73701        3.58472
H         -2.23433       -1.75216        2.24642
H         -0.24074       -3.29336        1.83085
H         -0.45901       -2.06057        0.59011
H          1.64282       -2.10130        2.59946
H          1.69220       -1.63297        1.00372
H         -1.37561        0.52682        3.08858
H          0.02927        0.09900        2.28006
C         -1.20977       -1.50833        2.52966
C         -0.18296       -2.21457        1.63902
N         -0.99584       -0.04937        2.34260
N          1.13026       -1.62422        1.86690
H         -1.39583        0.29062        1.43383
N          2.55016       -1.82472       -0.74994
C          3.81815       -1.11134       -0.68134
H          3.63042       -0.04899       -0.50625
H          4.41796       -1.50073        0.14795
H          4.40404       -1.22032       -1.61289
C          2.75170       -3.25420       -0.91668
H          3.34262       -3.64816       -0.08316
H          1.78328       -3.76374       -0.92546
H          3.27755       -3.49706       -1.85867
C          1.70338       -1.28792       -1.81017
H          0.72230       -1.76916       -1.79381
H          1.55178       -0.21874       -1.65347
H          2.15696       -1.43694       -2.80781
