29
2msa1a1ma_88.log	Energy: -929296.5247720
S          2.39889       -0.70058       -0.07093
O          1.10777       -1.32392       -0.49084
O          2.37689       -0.23015        1.33761
O          2.84551        0.36876       -1.00291
H          2.45436        1.99812       -0.20093
C          3.58838       -2.01946       -0.16890
H          3.27294       -2.80839        0.51371
H          3.61036       -2.38012       -1.19715
H          4.55884       -1.61849        0.12334
S         -1.46374        1.05473       -0.05117
O         -0.62248        2.24060       -0.32239
O         -1.52003        0.62805        1.33770
O         -1.03532       -0.11872       -0.99960
H         -0.13120       -0.56311       -0.75126
C         -3.08607        1.36823       -0.68274
H         -3.51018        2.16380       -0.06919
H         -2.99039        1.68468       -1.72122
H         -3.65203        0.43243       -0.59553
N          1.93785        2.36531        0.62189
H          2.30874        3.24445        0.96736
H          2.03872        1.58870        1.30538
H          0.93136        2.43911        0.34811
N         -3.72682       -1.82292       -0.43424
H         -4.34462       -2.46264       -0.92168
C         -3.60826       -2.18777        0.97935
H         -3.24899       -3.21186        1.15429
H         -2.91727       -1.49565        1.46681
H         -4.58384       -2.07991        1.46231
H         -2.81923       -1.87704       -0.88733
