40
2msa1dma1eda_135.log	Energy: -1038022.4019453
S          0.89380       -1.62248       -0.84859
O          0.77474       -1.73071        0.62532
O          2.19304       -1.10802       -1.30634
O         -0.24237       -0.81656       -1.42373
C          0.69875       -3.26570       -1.51497
H          1.50176       -3.88754       -1.11844
H         -0.27379       -3.65185       -1.20775
H          0.76350       -3.19921       -2.60107
S         -2.80464       -0.11588        0.70811
O         -4.21460        0.13661        0.91307
O         -1.88447        1.03128        0.67529
O         -2.64472       -0.93006       -0.63050
H         -1.67366       -0.91360       -0.95670
C         -2.20392       -1.24317        1.94542
H         -2.27756       -0.73495        2.90781
H         -2.84254       -2.12668        1.93025
H         -1.16686       -1.49399        1.70393
N          2.90799        0.40861        1.34728
C          2.98267        0.62197        2.78858
C          4.18966        0.57912        0.66800
H          2.54761       -0.52724        1.15932
H          3.24779        1.66490        2.99280
H          2.00718        0.42000        3.23885
H          3.73080       -0.02107        3.27492
H          4.51184        1.62293        0.75088
H          4.97932       -0.05699        1.09409
H          4.06306        0.32300       -0.38561
H          1.78472        2.89256       -1.26983
H          1.46611        1.22563       -1.83393
H         -0.06067        3.04087       -2.86035
H         -0.88827        1.67391       -2.11122
H         -1.28670        4.30448       -1.45469
H         -1.70556        3.02933       -0.50742
H          1.66929        1.24988        0.59267
H          0.43424        2.47494        0.60619
C          1.05144        2.08227       -1.30085
C         -0.27048        2.55465       -1.90351
N          0.80217        1.66522        0.10058
N         -0.93138        3.48393       -0.98286
H          0.04875        0.96490        0.12691
