42
2msa2eda_33.log	Energy: -1072770.7126491
S          2.79040       -1.00324        0.38639
O          3.62551        0.05932       -0.20261
O          2.22206       -1.94140       -0.62759
O          1.71047       -0.48416        1.27738
C          3.85723       -1.98619        1.42393
H          4.64344       -2.40526        0.79566
H          4.28076       -1.33302        2.18709
H          3.26218       -2.77763        1.87955
S         -2.60683        1.09659        0.49357
O         -3.26134        0.58563       -0.72567
O         -1.97851        2.43525        0.33078
O         -1.63574        0.12088        1.07952
C         -3.88483        1.30302        1.72215
H         -3.42259        1.66242        2.64146
H         -4.60314        2.02962        1.34161
H         -4.36471        0.33731        1.88346
H          1.34093        0.74673       -1.24390
H         -0.09006        1.76473       -1.56152
H          2.13071        2.51159       -2.64924
H          1.29181        3.76162       -1.71639
H          3.48689        2.12828       -0.62907
H          3.52971        3.75581       -0.95287
H          0.89062        1.02986        0.87798
H          1.46301        2.57985        0.67000
C          0.89280        1.72923       -1.08879
C          1.82834        2.80971       -1.63637
N          0.72032        1.92681        0.37761
N          2.93089        2.98115       -0.69732
H         -0.23893        2.27333        0.57723
H         -0.84738       -3.80680       -0.85826
H         -1.04676       -3.24023        0.81989
H         -3.25877       -3.71887       -0.41855
H         -3.12221       -2.09660        0.27044
H         -3.45879       -2.71131       -2.44609
H         -3.27469       -1.21988       -1.74028
H          0.53138       -1.87946       -0.58287
H         -0.84856       -1.49210       -1.50477
C         -1.24032       -3.00510       -0.22823
C         -2.72926       -2.76470       -0.50261
N         -0.50999       -1.76534       -0.57349
N         -2.88889       -2.15805       -1.82178
H         -0.78172       -1.00543        0.08998
