31
2msa1tma_16.log	Energy: -943122.7190461
S         -2.51680        0.25582       -0.05794
O         -2.37635       -0.02996       -1.47686
O         -2.01930       -0.69707        0.91938
O         -4.11714        0.41247        0.22093
H         -4.57455        0.27065       -0.61977
C         -1.95375        1.88011        0.35590
H         -0.85985        1.87256        0.33319
H         -2.36491        2.57635       -0.37467
H         -2.30982        2.10229        1.36191
S          1.88260        1.24409        0.09897
O          2.81306        0.33878        0.80645
O          1.20876        2.24957        0.93269
O          0.89101        0.45367       -0.72584
H          0.85066       -1.04522       -0.30384
C          2.85556        2.14127       -1.10252
H          3.58209        2.74493       -0.55773
H          3.36109        1.42421       -1.74971
H          2.18637        2.77784       -1.68166
N          0.94516       -2.08000       -0.03506
C          2.28305       -2.49687       -0.51712
H          2.31462       -2.38236       -1.60158
H          3.02287       -1.83981       -0.05816
H          2.45684       -3.54121       -0.24584
C          0.85630       -2.15057        1.44574
H          1.64407       -1.51722        1.85577
H         -0.11939       -1.77052        1.74719
H          0.98169       -3.18969        1.76126
C         -0.14518       -2.82924       -0.70008
H         -1.09777       -2.47502       -0.30890
H         -0.09875       -2.63733       -1.77259
H         -0.02027       -3.89689       -0.50162
