40
2msa1dma1eda_190.log	Energy: -1038022.1723082
S          2.65203        0.94054       -0.34889
O          3.56507        2.04084       -0.12379
O          1.64222        1.08398       -1.40402
O          1.93180        0.65740        1.03292
C          3.54569       -0.56164       -0.66464
H          2.82535       -1.38320       -0.72446
H          4.06198       -0.42611       -1.61576
H          4.25959       -0.70452        0.14652
S         -0.10060       -2.29664        0.20996
O          1.02360       -2.65499       -0.66266
O         -1.34955       -1.92736       -0.51480
O          0.25909       -1.23159        1.20820
H          1.29345       -0.14338        1.01836
C         -0.51277       -3.72897        1.18784
H         -0.81997       -4.52023        0.50375
H          0.37677       -4.02422        1.74452
H         -1.32399       -3.46481        1.86606
N         -0.96410        1.93408        1.32071
C         -1.68099        1.20636        2.36773
C         -1.36214        3.33598        1.22918
H          0.03698        1.87382        1.49675
H         -2.74444        1.18420        2.11227
H         -1.30373        0.18193        2.40223
H         -1.56157        1.67219        3.35720
H         -2.41852        3.38797        0.94642
H         -1.23405        3.87680        2.17831
H         -0.76880        3.83877        0.46033
H         -2.47719        2.26196       -1.70592
H         -2.01389        1.17767       -3.03757
H         -4.35909        0.81311       -2.18271
H         -3.34426       -0.63530       -2.16745
H         -4.70822        0.01413       -0.07878
H         -3.17297       -0.49299        0.13391
H         -0.20583        1.02285       -1.54535
H         -1.14734        1.16618       -0.17607
C         -2.27767        1.22243       -1.97795
C         -3.49616        0.34748       -1.69787
N         -1.12560        0.75741       -1.17274
N         -3.74097        0.25461       -0.26036
H         -1.13225       -0.27789       -1.07552
