41
2msa1dma1tma_61.log	Energy: -1027942.2524355
S         -0.67766        1.93318        0.50326
O         -2.06862        2.36165        0.62582
O         -0.32591        1.55365       -0.92137
O         -0.27804        0.83291        1.42746
H         -0.48198       -0.77007        1.11581
C          0.39012        3.29918        0.89964
H          0.16698        4.11041        0.20640
H          0.18163        3.59854        1.92699
H          1.41807        2.95069        0.78992
S          2.62071       -0.22435       -0.42611
O          2.61245       -1.37902        0.47195
O          2.84477        1.09790        0.14104
O          1.30688       -0.24734       -1.28151
H          0.65226        0.57050       -1.09753
C          3.85059       -0.52553       -1.67711
H          4.81614       -0.57540       -1.17279
H          3.62434       -1.47266       -2.16645
H          3.82701        0.29907       -2.38897
N         -2.50926       -0.54543       -1.44605
C         -3.84672       -0.02478       -1.19524
C         -2.39956       -1.22056       -2.72975
H         -1.85054        0.23076       -1.42222
H         -4.54871       -0.85442       -1.04238
H         -3.82800        0.59674       -0.29624
H         -4.23254        0.59109       -2.02465
H         -2.99480       -2.14201       -2.71968
H         -2.74913       -0.60659       -3.57713
H         -1.35536       -1.49081       -2.91551
N         -0.70529       -1.76573        1.37150
C         -0.42229       -2.66191        0.22347
H         -1.03465       -2.32350       -0.61272
H          0.63730       -2.58610       -0.01687
H         -0.68265       -3.68495        0.50754
C          0.15693       -2.06458        2.54144
H          1.19717       -1.96704        2.22875
H         -0.06163       -1.33687        3.32321
H         -0.05406       -3.07779        2.89155
C         -2.14855       -1.75771        1.71590
H         -2.31854       -0.99458        2.47581
H         -2.69827       -1.50668        0.80720
H         -2.43237       -2.74431        2.09009
