28
2msa1dma_74.log	Energy: -918446.7157846
S          1.89097       -1.25434        0.03592
O          2.24949       -2.62517        0.35219
O          0.90142       -1.00720       -1.01269
O          3.24542       -0.49633       -0.43297
H          3.91479       -1.17334       -0.61028
C          1.46769       -0.31418        1.46490
H          0.51604       -0.71357        1.82392
H          2.26410       -0.43736        2.19850
H          1.33311        0.73011        1.13477
S         -2.31671       -0.29897        0.06148
O         -2.19443        1.12934       -0.19584
O         -1.74128       -0.82603        1.29191
O         -1.76350       -1.12888       -1.18136
H         -0.77191       -1.14312       -1.15439
C         -4.02446       -0.76701       -0.05432
H         -4.54352       -0.24393        0.74953
H         -4.40390       -0.45348       -1.02642
H         -4.09785       -1.84623        0.07416
N          0.63750        2.44269        0.07418
C          1.25957        2.52502       -1.23898
C          0.69810        3.69477        0.81001
H         -0.33174        2.15191       -0.02859
H          2.33482        2.70140       -1.12351
H          1.13054        1.57418       -1.76173
H          0.84809        3.33337       -1.86734
H          1.74411        3.94406        1.02259
H          0.25387        4.54638        0.26654
H          0.17644        3.58642        1.76500
