22
2msa1a_11.log	Energy: -869141.2551907
S         -2.46503        0.13994       -0.08909
O         -3.90966        0.12437       -0.04388
O         -1.75450       -0.57268       -1.14537
O         -1.95710       -0.39154        1.32607
H         -1.00203       -0.64636        1.27989
C         -1.89515        1.82782       -0.09195
H         -2.23901        2.27923       -1.02347
H         -2.33239        2.33600        0.76719
H         -0.80493        1.81840       -0.04649
S          1.64747       -0.68014        0.15510
O          0.67651       -0.97082        1.21061
O          3.06131       -0.83693        0.47610
O          1.39798        0.79527       -0.35192
H          2.28084        1.35682       -0.28804
C          1.23374       -1.65879       -1.26386
H          1.37104       -2.70193       -0.97597
H          0.19054       -1.45407       -1.51257
H          1.90955       -1.38779       -2.07457
N          3.65552        2.05213       -0.10263
H          3.66026        2.78050        0.60474
H          4.08695        2.42465       -0.94258
H          4.22362        1.27740        0.23620
