42
2msa2eda_213.log	Energy: -1072756.6274711
S          1.51902       -1.05357       -1.37062
O          1.51605       -1.97335       -0.21603
O          2.46193        0.06815       -1.28860
O          0.11584       -0.53771       -1.65256
C          1.94166       -2.02358       -2.80581
H          2.94234       -2.42739       -2.64985
H          1.21260       -2.82832       -2.90273
H          1.91989       -1.37080       -3.67844
S         -2.24242       -1.22433        0.75979
O         -3.61378       -1.54905        1.09063
O         -1.78858        0.16077        0.95066
O         -2.00719       -1.63377       -0.74512
H         -1.14174       -1.23936       -1.10929
C         -1.13143       -2.28294        1.65628
H         -1.18711       -1.99582        2.70702
H         -1.47002       -3.30973        1.51720
H         -0.12532       -2.14831        1.24969
H         -0.35271        3.95931       -0.82508
H          0.21174        2.94140       -2.17841
H         -2.21729        3.50821       -2.37161
H         -1.96584        1.76720       -2.22617
H         -3.65539        3.12781       -0.67314
H         -2.84880        1.83401       -0.06896
H          0.97267        2.13788        0.08853
H         -0.66743        1.85132        0.40899
C         -0.44555        2.98319       -1.30662
C         -1.90170        2.72043       -1.68164
N          0.01181        1.95342       -0.34974
N         -2.73459        2.75506       -0.48372
H          0.05230        1.02780       -0.81939
H          2.78241        1.99562        3.15649
H          1.11939        2.44107        2.72897
H          1.16813        0.11105        3.45000
H          0.79300        0.16548        1.73396
H          3.17135       -0.91163        2.93200
H          2.51711       -1.19267        1.43231
H          2.92911        3.03652        1.05486
H          2.96809        1.43470        0.69483
C          1.97610        1.82350        2.43041
C          1.59256        0.34298        2.46371
N          2.37794        2.18480        1.06339
N          2.74225       -0.48339        2.12315
