37
2msa1ma1eda_180.log	Energy: -1013359.5921959
S          1.85816       -1.54836        0.03888
O          2.81199       -0.80026        0.86818
O          2.09837       -1.52222       -1.40705
O          0.43954       -1.07862        0.37164
C          1.88659       -3.25262        0.56869
H          2.88709       -3.64088        0.37555
H          1.65995       -3.28702        1.63430
H          1.14488       -3.80621       -0.00778
S         -2.61925       -0.21416       -0.50789
O         -1.95409        0.92695       -1.13451
O         -3.01600       -0.04865        0.89024
O         -1.76985       -1.51792       -0.69789
H         -0.81169       -1.40258       -0.30751
C         -4.04848       -0.65984       -1.46250
H         -4.74300        0.17867       -1.40387
H         -3.73486       -0.83355       -2.49127
H         -4.48751       -1.55616       -1.02543
N         -1.10219        1.82194        2.38125
H         -1.40480        2.61560        2.93582
C         -0.36408        0.85505        3.20711
H         -0.95382        0.45220        4.03908
H         -0.04507        0.02225        2.57424
H          0.53262        1.33067        3.61428
H         -1.93782        1.37440        2.00265
H          1.84438        3.29976        0.46772
H          2.40976        1.68980        1.00868
H          3.61387        2.43252       -1.06097
H          2.69408        0.94808       -1.30360
H          2.04311        3.57251       -2.38586
H          1.86631        2.08580       -3.05544
H         -0.10728        1.98926        0.92899
H          0.09790        2.04180       -0.77145
C          1.89836        2.23664        0.21441
C          2.59809        2.02294       -1.12566
N          0.51345        1.72694        0.11203
N          1.78938        2.61079       -2.19365
H          0.50233        0.68842        0.10144
