26
2msa2a_90.log	Energy: -904630.5119319
S          2.55515       -0.37733        0.06981
O          3.90270       -0.80095        0.38019
O          2.30423        0.98092       -0.39486
O          1.67807       -0.66159        1.36940
H          0.82304       -0.16092        1.34665
C          1.85255       -1.50349       -1.11857
H          2.40677       -1.37548       -2.04924
H          1.97336       -2.51660       -0.73493
H          0.80067       -1.24612       -1.25262
S         -1.87048        0.30039        0.48139
O         -0.68349        0.59925        1.28176
O         -2.96337       -0.43336        1.11240
O         -1.39992       -0.50377       -0.79960
H         -2.00896       -1.33777       -0.94229
C         -2.46431        1.82659       -0.18662
H         -2.83566        2.40879        0.65836
H         -1.61649        2.33748       -0.66794
H         -3.27170        1.60095       -0.88355
N          0.31424        3.23155       -1.04753
H          0.61811        3.57647       -1.95233
H          0.95439        2.48296       -0.78397
H          0.45778        3.98462       -0.38182
N         -2.97698       -2.57407       -0.97637
H         -3.63393       -2.61531       -1.74907
H         -3.50072       -2.41650       -0.11678
H         -2.51746       -3.47657       -0.90562
