42
2msa2eda_499.log	Energy: -1072745.9375085
S          3.14102       -1.28879       -0.46623
O          4.41591       -1.99866       -0.35093
O          3.02445       -0.34999       -1.60180
O          2.76558       -0.57224        0.82929
H          3.06317        0.85234        0.79709
C          1.85594       -2.51243       -0.65788
H          2.04703       -3.03754       -1.59472
H          1.91966       -3.20507        0.18230
H          0.88260       -2.01827       -0.68009
S         -1.49388       -0.35990        0.96070
O         -1.42364        1.05877        0.52813
O         -1.28205       -1.31821       -0.14589
O         -2.79732       -0.65024        1.66338
H         -3.71959       -1.21417        0.52110
C         -0.21583       -0.61343        2.16909
H          0.75583       -0.51187        1.67567
H         -0.34414        0.12991        2.95681
H         -0.33088       -1.62062        2.57064
H          3.25388        3.54232       -0.58906
H          3.37040        1.89619       -1.31160
H          1.07000        2.93400       -1.60718
H          1.07708        1.39488       -0.74740
H          0.55691        4.00772        0.41272
H         -0.11109        2.53177        0.73255
H          4.17868        2.14304        1.07613
H          2.54736        2.37129        1.43816
C          2.89131        2.51019       -0.54806
C          1.37042        2.44575       -0.67236
N          3.22459        1.94750        0.78645
N          0.75830        3.02096        0.52582
H         -5.78719       -0.60174       -1.57099
H         -5.94243       -0.34208        0.18829
H         -5.25271        1.75629       -1.09153
H         -4.09873        1.28124        0.16280
H         -3.59673        1.35888       -2.63429
H         -2.54456        1.09699       -1.37443
H         -4.57112       -2.33702       -0.46806
H         -3.47036       -1.25448       -1.12247
C         -5.24844       -0.34569       -0.65484
C         -4.51867        0.99537       -0.80641
N         -4.21632       -1.38581       -0.41822
N         -3.44359        0.84462       -1.77816
