42
2msa2eda_320.log	Energy: -1072754.2432677
S          0.82706        2.07854        0.31189
O          1.45399        1.46469        1.49591
O         -0.62347        2.40096        0.52080
O          1.03508        1.27745       -0.92639
C          1.60824        3.65466        0.03693
H          1.45593        4.26571        0.92656
H          2.67055        3.47163       -0.12887
H          1.15200        4.11778       -0.83779
S         -3.01742        0.08375       -0.26806
O         -3.91121       -0.99242        0.13302
O         -2.08724       -0.17243       -1.36380
O         -2.21951        0.51973        1.01804
H         -1.55066        1.28639        0.82598
C         -3.96388        1.53483       -0.67222
H         -4.53024        1.31280       -1.57716
H         -4.63002        1.75476        0.16169
H         -3.26177        2.35196       -0.84492
H         -0.84467       -2.17610       -1.51464
H          0.79696       -2.85211       -1.37629
H         -1.00893       -4.39054       -0.47232
H          0.22420       -3.97609        0.72553
H         -2.44139       -2.71560        0.61692
H         -1.74046       -3.53663        1.86076
H          0.36715       -0.43752       -0.59262
H         -0.38506       -1.17688        0.70686
C         -0.06976       -2.49454       -0.81552
C         -0.60359       -3.56840        0.13444
N          0.32383       -1.30502       -0.02971
N         -1.55432       -2.95892        1.05187
H          1.27357       -1.39906        0.43889
H          4.96473       -1.08677        0.83963
H          4.18020       -2.65515        0.55432
H          4.85271       -1.62233       -1.53727
H          3.09600       -1.79054       -1.46771
H          4.17070        0.43805       -2.20204
H          2.92905        0.55347       -1.15105
H          2.89609       -1.48109        2.13041
H          2.77686       -0.14504        1.21774
C          4.06366       -1.57123        0.44033
C          3.95403       -1.23828       -1.04294
N          2.85418       -1.16441        1.16645
N          3.87903        0.20067       -1.26152
