32
2msa2ma_202.log	Energy: -953956.0383773
S         -2.64525       -0.53107        0.35779
O         -2.81641        0.91417        0.10967
O         -1.85832       -0.88916        1.52852
O         -2.10152       -1.22699       -0.92885
H         -1.16103       -0.82205       -1.19843
C         -4.25706       -1.26338        0.46041
H         -4.80382       -1.02782       -0.45192
H         -4.13180       -2.33900        0.58120
H         -4.74555       -0.83030        1.33353
S          1.37823       -0.31479       -0.83018
O          2.47893       -0.45827       -1.77216
O          0.03372       -0.14421       -1.51611
O          1.53733        0.81878        0.14430
H          0.31586        1.82057       -0.04351
C          1.26413       -1.79419        0.15049
H          1.14296       -2.63642       -0.53192
H          2.19809       -1.86632        0.71653
H          0.40984       -1.70257        0.82413
N         -0.51258        2.43635       -0.31144
H         -0.44723        2.54824       -1.32229
C         -0.51014        3.72582        0.40758
H         -1.34906        4.33886        0.07785
H         -0.60401        3.52488        1.47419
H          0.43000        4.24315        0.21746
H         -1.37681        1.88838       -0.12837
N          3.92896       -0.49828        1.69411
H          3.22048        0.21650        1.54878
C          4.99594       -0.35302        0.70398
H          5.53719        0.60407        0.75442
H          5.72293       -1.16130        0.82973
H          4.56289       -0.44355       -0.29550
H          4.28950       -0.39391        2.63589
