34
2msa1a1eda_343.log	Energy: -988686.6169249
S         -3.04760       -0.03452       -0.25247
O         -4.47868        0.01376       -0.48180
O         -2.54971       -0.73025        0.93849
O         -2.45479        1.43400       -0.24428
H         -2.05444        1.66176        0.70075
C         -2.26249       -0.72442       -1.69021
H         -2.66155       -1.73237       -1.81250
H         -2.52810       -0.10743       -2.54897
H         -1.18240       -0.75489       -1.53408
S          1.51348       -1.80650        0.08765
O          1.57108       -3.24405       -0.06074
O          1.02614       -0.99368       -1.03676
O          2.94442       -1.26893        0.48154
H          3.14836       -0.34815        0.04391
C          0.55080       -1.39730        1.52440
H         -0.49579       -1.63056        1.31699
H          0.93366       -1.97899        2.36299
H          0.66717       -0.32714        1.70126
N         -1.28291        1.87145        2.01333
H         -1.43883        1.01415        2.53658
H         -1.49288        2.66473        2.60874
H         -0.30867        1.91482        1.70263
H          2.01265        2.80244       -1.72891
H          1.73934        3.75433       -0.27128
H          4.00810        3.06459       -0.28781
H          3.18770        2.19197        1.02250
H          3.51387        0.94100       -1.61188
H          4.69265        0.86812       -0.49100
H         -0.05303        2.22963       -0.57824
H          0.92284        0.94143       -0.57098
C          1.92430        2.73663       -0.63038
C          3.26440        2.28960       -0.06502
N          0.82306        1.88470       -0.19339
N          3.68919        0.98285       -0.60964
