40
2msa1dma1eda_209.log	Energy: -1038021.1005659
S          1.26462        1.80948        0.61813
O          2.62389        1.26357        0.45450
O          0.69403        1.70527        1.96399
O          0.34230        1.18627       -0.42530
C          1.32855        3.53856        0.18310
H          0.32215        3.95035        0.26431
H          1.99947        4.03066        0.88780
H          1.70752        3.62645       -0.83510
S         -2.78116       -0.03651       -0.69236
O         -3.38274       -0.44871        0.57106
O         -1.81172       -0.94633       -1.30141
O         -2.15086        1.39575       -0.55973
H         -1.11804        1.35237       -0.46472
C         -4.08677        0.29171       -1.85149
H         -4.61816       -0.64793       -2.00507
H         -4.74874        1.04206       -1.41957
H         -3.64242        0.64538       -2.78112
N          3.01753       -1.26988       -1.06961
C          2.61791       -0.81925       -2.40169
C          4.19654       -2.12641       -1.08095
H          3.18676       -0.43852       -0.49938
H          2.28751       -1.67621       -2.99869
H          1.78591       -0.11649       -2.30439
H          3.43724       -0.31982       -2.94028
H          3.97113       -3.05807       -1.61051
H          5.06067       -1.65531       -1.57400
H          4.47781       -2.37616       -0.05457
H          1.24867       -2.58524        1.95068
H          1.47130       -0.81403        1.98502
H         -0.43714       -1.52105        3.45681
H         -0.95667       -0.47096        2.14865
H         -1.64286       -3.23833        2.50757
H         -2.37520       -2.07933        1.58627
H          1.52161       -1.73313       -0.28441
H         -0.13884       -2.24360       -0.01900
C          0.79331       -1.62193        1.70404
C         -0.57042       -1.47102        2.37017
N          0.60543       -1.58510        0.23385
N         -1.48358       -2.48671        1.84963
H          0.29538       -0.64522       -0.06969
