43
2msa1eda1tma_18.log	Energy: -1062691.8049241
S          2.78404        0.37175       -0.06893
O          2.74156       -0.46108        1.14431
O          2.64430        1.83488        0.19579
O          1.81646       -0.07873       -1.11488
C          4.40712        0.18128       -0.78409
H          5.13780        0.54075       -0.05931
H          4.56402       -0.87746       -0.99230
H          4.45121        0.76628       -1.70264
S         -3.11246       -0.21263       -0.04187
O         -3.32638        1.24782       -0.05060
O         -2.30028       -0.69534        1.10477
O         -2.56601       -0.73417       -1.33702
C         -4.72943       -0.95367        0.13218
H         -5.16464       -0.59841        1.06658
H         -5.33880       -0.64415       -0.71735
H         -4.61339       -2.03762        0.14958
H         -0.55724       -3.90264       -0.46731
H          0.43247       -3.31932       -1.82804
H          1.76509       -4.53683       -0.02996
H          2.33352       -2.89948       -0.36419
H          1.50883       -3.84282        2.10702
H          1.80574       -2.26859        1.69761
H         -1.10230       -1.56414       -0.99535
H         -0.46474       -1.74721        0.50530
C          0.24347       -3.21807       -0.75665
C          1.50688       -3.47746        0.06759
N         -0.22757       -1.84365       -0.49094
N          1.27864       -3.10426        1.45745
H          0.52142       -1.15434       -0.71230
N          0.09612        2.67586        0.14728
C         -0.45803        1.91347        1.29931
H         -0.30575        0.84956        1.12745
H          0.07445        2.21811        2.20077
H         -1.53045        2.09595        1.37396
C         -0.01696        4.13510        0.36250
H          0.48844        4.39668        1.29274
H          0.45655        4.65595       -0.47039
H         -1.07360        4.40387        0.42099
C         -0.51923        2.25957       -1.14333
H         -0.09811        2.87539       -1.93904
H         -0.26131        1.21723       -1.32298
H         -1.60332        2.36167       -1.07551
H          1.11841        2.42158        0.10713
