42
2msa2eda_41.log	Energy: -1072769.9523398
S          2.48967        1.46000        0.07150
O          3.34723        0.47479        0.75160
O          1.75682        2.39354        0.94185
O          1.53885        0.78500       -0.90153
C          3.56519        2.44388       -0.96100
H          4.25438        2.97829       -0.30654
H          4.11006        1.77741       -1.62978
H          2.95381        3.14548       -1.52857
S         -2.53752       -1.53516       -0.07694
O         -1.69295       -2.45702       -0.88874
O         -3.38557       -0.63123       -0.86807
O         -1.69390       -0.80322        0.92464
C         -3.62146       -2.57933        0.88150
H         -4.23174       -3.15911        0.18860
H         -3.00976       -3.23646        1.49960
H         -4.24848       -1.93971        1.50294
H          1.53784       -3.83526       -0.57072
H          1.97854       -2.73075       -1.89300
H          3.93596       -3.39319       -0.35869
H          3.68698       -1.65023       -0.52836
H          3.56243       -3.09531        1.86413
H          3.29356       -1.48036        1.61031
H         -0.06083       -2.09447       -0.57878
H          0.97852       -1.88572        0.72780
C          1.91184       -2.83628       -0.80821
C          3.25476       -2.56968       -0.12118
N          0.92109       -1.86436       -0.29769
N          3.04625       -2.42122        1.31636
H          1.15382       -0.88865       -0.58544
H         -1.52222        3.04432       -1.45107
H         -2.24382        1.41511       -1.61434
H         -3.94414        3.02785       -0.80477
H         -3.61304        1.75524        0.36870
H         -2.69612        4.53604        0.55689
H         -3.42470        3.61520        1.69745
H         -0.05087        1.43262       -0.45541
H         -0.74295        2.34874        0.74898
C         -1.96996        2.20400       -0.91256
C         -3.18692        2.64181       -0.10937
N         -0.94820        1.66609        0.01343
N         -2.77526        3.59315        0.92141
H         -1.28344        0.77855        0.45932
