44
2msa2tma_37.log	Energy: -1052600.6231766
S          0.29510        2.28220       -0.23212
O         -0.33924        1.63276       -1.42960
O          1.75971        2.25862       -0.28058
O         -0.28126        1.72927        1.02533
C         -0.21812        3.98954       -0.28831
H          0.15502        4.42124       -1.21725
H         -1.30723        4.02349       -0.25415
H          0.21277        4.50042        0.57300
S         -2.53098       -0.92217       -0.44397
O         -2.41758       -0.74021        1.00495
O         -1.59205       -1.86129       -1.04891
O         -2.52208        0.45059       -1.19061
H         -1.58610        0.91345       -1.25359
C         -4.19435       -1.42613       -0.81731
H         -4.35146       -2.38781       -0.32798
H         -4.88034       -0.67583       -0.42528
H         -4.29102       -1.52253       -1.89823
N          2.69861       -1.35514       -0.94138
C          1.67866       -1.16402       -1.96789
H          0.86465       -1.88142       -1.82977
H          1.25564       -0.16010       -1.89211
H          2.09454       -1.29609       -2.98467
C          3.74468       -0.34870       -1.06519
H          3.30375        0.64718       -0.97367
H          4.48568       -0.48144       -0.26837
H          4.27261       -0.41851       -2.03508
C          3.25462       -2.69513       -1.00554
H          3.98946       -2.83525       -0.20551
H          2.45946       -3.43777       -0.87931
H          3.75610       -2.89713       -1.97138
N          0.53789       -0.57125        2.10945
C          0.48491       -1.95720        1.57985
H         -0.55624       -2.22978        1.42234
H          1.03452       -1.97307        0.63774
H          0.96039       -2.62061        2.30707
C          1.94043       -0.09827        2.24174
H          2.43499       -0.25568        1.28205
H          1.92624        0.96510        2.47831
H          2.43325       -0.67112        3.03097
C         -0.23189       -0.42040        3.36695
H         -0.18385        0.62419        3.67513
H         -1.26726       -0.69345        3.16448
H          0.20274       -1.06749        4.13234
H          0.08643        0.09817        1.44333
