38
2msa2dma_105.log	Energy: -1003283.6388419
S          2.59379       -0.19699       -0.24210
O          3.74220        0.44823        0.37117
O          1.83679        0.55269       -1.24337
O          1.61950       -0.62249        0.92672
C          3.07264       -1.75678       -0.95224
H          3.73234       -1.53750       -1.79227
H          3.59445       -2.33281       -0.18830
H          2.16791       -2.26810       -1.28543
S         -1.48213       -1.76084        0.14231
O         -2.08481       -1.65063       -1.18723
O         -1.58824       -0.53691        0.97411
O         -0.04687       -2.23894        0.10766
H          0.88389       -1.31548        0.59408
C         -2.34672       -3.05678        1.01318
H         -3.39666       -2.77188        1.08661
H         -2.23971       -3.97828        0.44059
H         -1.90299       -3.16412        2.00303
N         -0.13307        1.86568        1.06536
C         -0.98075        2.09057        2.25346
C          1.05363        2.74361        0.99968
H          0.15239        0.87816        1.04424
H         -1.38514        3.10418        2.21109
H         -1.78357        1.35523        2.23872
H         -0.38260        1.97145        3.15872
H          0.72859        3.78234        1.08720
H          1.74000        2.49731        1.81121
H          1.55278        2.58138        0.04496
H         -0.73228        2.01558        0.17899
N         -1.68300        2.31489       -1.16713
C         -3.06664        1.97060       -0.81940
C         -1.16967        1.49175       -2.27328
H         -1.64549        3.29175       -1.44520
H         -3.08032        0.95196       -0.42443
H         -3.43107        2.65395       -0.04640
H         -3.74145        2.02293       -1.68522
H         -1.25664        0.43769       -2.00090
H         -1.73665        1.65508       -3.20040
H         -0.11521        1.71708       -2.44256
