32
2msa1a1dma_165.log	Energy: -953947.5030626
S          1.92190       -0.72850        0.08133
O          1.09161       -1.18082       -1.02005
O          2.09610        0.73196        0.23386
O          3.35576       -1.36151       -0.00457
H          4.08171       -0.62735       -0.20275
C          1.30265       -1.39775        1.60101
H          0.31637       -0.95226        1.74688
H          1.24205       -2.48047        1.48987
H          1.98592       -1.11769        2.40209
S         -1.36611        1.62879        0.11128
O         -2.40764        2.60485        0.34597
O         -1.14108        0.55965        1.08393
O          0.00091        2.45016       -0.04359
H          0.76946        1.84312        0.08470
C         -1.57810        0.89192       -1.48830
H         -2.46916        0.25394       -1.42753
H         -1.69746        1.69474       -2.21574
H         -0.69840        0.28033       -1.69944
N          5.03687        0.55332       -0.46238
H          4.44885        1.35543       -0.24456
H          5.33338        0.63176       -1.43033
H          5.86325        0.58975        0.12589
N         -3.49419       -1.62963       -0.66893
C         -4.14155       -1.32684        0.60085
C         -2.25520       -2.37671       -0.50135
H         -4.13061       -2.14900       -1.26345
H         -3.48842       -0.67470        1.18867
H         -5.07846       -0.79350        0.42002
H         -4.35950       -2.22536        1.20453
H         -1.54429       -1.75937        0.05584
H         -2.38666       -3.32845        0.04255
H         -1.81139       -2.58957       -1.47753
