31
2msa1tma_38.log	Energy: -943105.8130938
S         -0.26513        2.07863        0.08288
O         -1.02879        3.25953        0.41479
O          0.07705        1.11173        1.12442
O          1.10931        2.58990       -0.57249
H          1.76894        1.86396       -0.53097
C         -1.04220        1.21069       -1.25543
H         -1.95365        0.74187       -0.86246
H         -1.26117        1.93356       -2.04114
H         -0.35638        0.43538       -1.60127
S          2.25540       -0.98244       -0.08290
O          1.06628       -1.48409       -0.73750
O          2.75682        0.34300       -0.45333
O          3.48241       -2.00752       -0.34256
H          4.04593       -1.64437       -1.04212
C          2.11490       -1.14824        1.67339
H          1.30294       -0.48043        1.96646
H          1.88204       -2.19047        1.89170
H          3.06056       -0.84526        2.12121
N         -3.05025       -1.07738       -0.07285
C         -2.36444       -1.22496        1.20057
H         -1.28824       -1.10480        1.05116
H         -2.69319       -0.44519        1.89319
H         -2.55272       -2.21144        1.66667
C         -4.49183       -1.13849        0.08793
H         -4.82122       -0.35461        0.77595
H         -4.98053       -0.97451       -0.87715
H         -4.83261       -2.11368        0.48635
C         -2.57792       -2.05887       -1.03479
H         -3.06114       -1.89268       -2.00276
H         -1.49643       -1.95849       -1.16412
H         -2.79133       -3.09746       -0.71706
