37
2msa1ma1eda_240.log	Energy: -1013360.6542368
S         -1.41333       -1.95669        0.15715
O         -1.78464       -1.13113       -0.99610
O         -2.47846       -2.65584        0.85079
O         -0.66239       -1.04551        1.20751
C         -0.16884       -3.10663       -0.38578
H         -0.66725       -3.79589       -1.06825
H          0.61086       -2.54029       -0.89855
H          0.22271       -3.63488        0.48341
S          2.45361       -0.19828       -0.08974
O          2.73156        1.20526        0.26509
O          1.64123       -0.35177       -1.32527
O          1.85005       -0.98021        1.04279
H          0.36823       -1.02658        1.12490
C          4.02447       -0.98240       -0.39423
H          4.50493       -0.46223       -1.22307
H          4.62246       -0.89981        0.51335
H          3.84569       -2.02800       -0.64492
N         -3.30314        1.36242       -1.03942
H         -3.93996        1.88100       -1.63434
C         -3.68916        1.47538        0.37204
H         -4.71136        1.13769        0.57818
H         -3.00768        0.87044        0.97645
H         -3.59380        2.51626        0.69468
H         -3.32689        0.38425       -1.32147
H          1.23498        2.53377       -1.08466
H         -0.24728        3.30370       -1.71536
H          0.70652        4.36671        0.40845
H         -0.98162        3.85469        0.56351
H          1.29811        2.24979        1.51182
H          0.09665        2.93275        2.43468
H         -0.02015        0.68899       -1.27986
H         -0.46335        1.17282        0.23386
C          0.18238        2.74061       -0.88477
C          0.04527        3.48977        0.44366
N         -0.51001        1.43535       -0.76646
N          0.32636        2.55604        1.52464
H         -1.53245        1.47087       -1.02669
