34
2msa1a1eda_188.log	Energy: -988701.4660391
S         -0.79378        2.18702        0.08210
O         -1.64826        3.33830        0.27234
O         -1.04814        0.99963        0.92356
O          0.69331        2.64296        0.27947
H          1.34202        1.85641        0.36623
C         -0.86174        1.64800       -1.60953
H         -1.85473        1.22324       -1.77457
H         -0.69134        2.51895       -2.24238
H         -0.08690        0.88933       -1.74916
S          2.37655       -0.57968       -0.13668
O          2.36494        0.75048        0.54761
O          1.35493       -0.67997       -1.19915
O          2.31019       -1.68991        0.85247
H          0.93255       -1.46674        1.87427
C          3.97336       -0.71234       -0.91452
H          4.73672       -0.61452       -0.14288
H          4.03365       -1.68740       -1.39804
H          4.05924        0.08879       -1.64880
N         -0.07767       -1.30972        2.09502
H         -0.60606       -1.81888        1.31143
H         -0.28971       -0.30871        1.96860
H         -0.32539       -1.62834        3.02593
H         -3.43074       -2.13802        1.07317
H         -4.43579       -2.35736       -0.36381
H         -2.46268       -3.82955       -0.37279
H         -2.50398       -2.73722       -1.77157
H         -0.31547       -2.93576       -0.59694
H         -0.82005       -1.42499       -0.75715
H         -4.26229       -0.08726       -0.24042
H         -2.69286       -0.07764        0.20184
C         -3.47274       -1.96940       -0.01632
C         -2.37055       -2.78313       -0.68280
N         -3.37599       -0.55832       -0.37962
N         -1.04292       -2.29947       -0.28126
