38
2msa2dma_107.log	Energy: -1003282.4521964
S          2.71730        0.08154        0.47561
O          3.19799        1.09503       -0.47239
O          2.74536       -1.31525        0.02688
O          1.31762        0.46190        0.96926
H          0.26724       -0.59169        0.86170
C          3.73456        0.18655        1.93687
H          4.75801       -0.04897        1.64343
H          3.67128        1.20039        2.33204
H          3.36690       -0.53810        2.66336
S         -0.88682       -1.72036       -0.64413
O         -2.26096       -2.19089       -0.61125
O         -0.54120       -1.23068        0.80835
O         -0.54666       -0.67279       -1.61937
H         -0.24966        1.04802       -1.40159
C          0.22280       -3.07658       -0.91299
H          0.00085       -3.83995       -0.16741
H          0.03965       -3.45033       -1.92086
H          1.23927       -2.69070       -0.80088
N         -3.29282        0.55554        0.76472
C         -4.58614        1.08878        0.37172
C         -3.09845        0.53579        2.20585
H         -3.18400       -0.38494        0.39492
H         -4.64017        2.15464        0.62608
H         -4.71048        0.99257       -0.71038
H         -5.43737        0.58698        0.86315
H         -3.05205        1.56364        2.58645
H         -3.90595        0.01490        2.74833
H         -2.15125        0.04189        2.43328
N          0.05106        1.94524       -0.97803
C         -1.14544        2.69107       -0.52381
C          0.93209        2.68601       -1.90822
H          0.60255        1.61275       -0.15687
H         -1.67241        3.07389       -1.39997
H         -1.80204        2.00355        0.02618
H         -0.82441        3.52373        0.10434
H          0.38669        2.88403       -2.83216
H          1.22622        3.62596       -1.43945
H          1.82214        2.08515       -2.09230
