42
2msa2eda_616.log	Energy: -1072728.5432660
S         -2.58453        0.23579       -1.30365
O         -3.14945        0.77929       -2.51790
O         -2.75396        1.01342       -0.06338
O         -1.02422       -0.04679       -1.48725
H         -0.47677        0.68750       -1.08191
C         -3.16290       -1.41566       -1.03791
H         -4.24858       -1.34849       -0.95280
H         -2.88539       -2.01026       -1.90894
H         -2.71261       -1.79062       -0.10922
S          0.44142        1.95392        1.19394
O          0.63346        3.30599        1.66593
O          0.42871        1.75515       -0.27227
O         -0.90847        1.33718        1.76994
H         -1.63336        1.31483        1.08019
C          1.63179        0.86339        1.91171
H          2.59743        1.14952        1.48819
H          1.60809        1.01052        2.99192
H          1.36894       -0.16177        1.61530
H          4.70907       -0.92148       -2.23498
H          3.29413       -1.94176       -2.52747
H          2.72925        0.36667       -3.01642
H          1.81796       -0.17377       -1.60314
H          4.16753        1.56280       -1.51969
H          2.64328        1.86933       -1.00802
H          4.38546       -2.41178       -0.37513
H          3.96280       -0.90798        0.12618
C          3.69932       -1.16844       -1.86596
C          2.82198        0.07356       -1.96029
N          3.70172       -1.67209       -0.49244
N          3.34343        1.14008       -1.10318
H         -0.02410       -2.58032        3.03628
H         -1.18431       -3.81118        2.50262
H          0.99071       -3.82889        1.25124
H         -0.43396       -3.66785        0.21933
H          1.68917       -2.02822        0.08069
H          0.16111       -1.51402       -0.26971
H         -2.36903       -1.80394        2.66039
H         -1.25106       -0.96572        1.83139
C         -0.68122       -2.88404        2.20606
C          0.17766       -3.14953        0.97279
N         -1.69928       -1.87634        1.90166
N          0.74781       -1.90570        0.45969
