42
2msa2eda_579.log	Energy: -1072740.6566775
S          1.62745       -0.42239        1.71134
O          1.78206       -1.47161        2.71231
O          0.51104       -0.69259        0.72368
O          2.85677       -0.13925        0.89965
H          2.60363       -0.49640       -0.59386
C          1.19191        1.09444        2.52661
H          0.25435        0.92059        3.05714
H          1.99116        1.32956        3.23084
H          1.07182        1.88612        1.77714
S         -2.71410       -0.29533        0.30879
O         -2.37109       -0.27498       -1.12098
O         -2.68768        0.97535        1.01245
O         -1.84808       -1.37921        1.04357
H         -0.84108       -1.11564        1.01385
C         -4.31726       -1.04018        0.49241
H         -5.03336       -0.36740        0.01968
H         -4.31146       -2.01139       -0.00106
H         -4.52601       -1.13989        1.55717
H          1.43128        3.80958       -1.79470
H          2.28371        2.56660       -0.85742
H          0.76041        1.52229       -2.46412
H          0.23734        1.18073       -0.80037
H         -1.06785        2.97921       -2.68087
H         -1.70721        1.83458       -1.68017
H          1.26955        4.40851        0.50418
H         -0.19176        3.75189        0.12826
C          1.30177        3.02948       -1.02388
C          0.33372        1.97316       -1.55066
N          0.79958        3.54935        0.24260
N         -0.98846        2.54505       -1.76880
H          2.70917       -2.47963       -2.81825
H          2.86143       -2.76473       -1.06561
H          0.61529       -3.51256       -2.14469
H          0.48664       -2.46558       -0.72111
H         -0.19407       -1.75994       -3.43086
H         -0.73298       -1.11823       -2.01040
H          3.31483       -0.39800       -2.12348
H          1.63721       -0.33529       -2.02116
C          2.30978       -2.22054       -1.83406
C          0.79726       -2.50118       -1.76543
N          2.50298       -0.75989       -1.63054
N          0.08835       -1.46225       -2.50577
