37
2msa1ma1eda_94.log	Energy: -1013362.2646144
S          2.58009       -0.56062       -0.38539
O          1.51023       -1.44658       -0.84210
O          2.84350       -0.53636        1.05171
O          2.37519        0.88984       -0.94090
C          4.07680       -0.98154       -1.24479
H          3.89093       -0.90582       -2.31564
H          4.85928       -0.29230       -0.92930
H          4.32421       -2.00597       -0.96526
S         -0.92990        2.03664       -0.12374
O         -1.75453        1.71652        1.05555
O         -1.16995        1.13504       -1.27924
O          0.52893        2.11566        0.22325
H          1.58508        1.38620       -0.48354
C         -1.37642        3.67787       -0.65716
H         -2.44072        3.67847       -0.89341
H         -1.16212        4.36857        0.15843
H         -0.78443        3.92413       -1.53883
N          0.01672       -0.50898        2.30618
H          1.01558       -0.39145        2.13966
C         -0.22367       -1.19489        3.57528
H          0.18498       -0.66494        4.44476
H         -1.30005       -1.31756        3.72790
H          0.22817       -2.19003        3.54110
H         -0.40070        0.42130        2.30407
H         -2.81266       -2.15870        0.99394
H         -2.91070       -0.42580        0.59677
H         -4.43171       -1.72710       -0.88881
H         -3.12197       -0.98194       -1.81075
H         -3.33397       -3.82063       -1.12994
H         -2.99930       -3.12986       -2.57492
H         -0.63059       -1.15551        0.88671
H         -0.83622       -2.23086       -0.45929
C         -2.62015       -1.40916        0.21959
C         -3.34871       -1.75599       -1.07097
N         -1.16516       -1.36780       -0.02531
N         -2.86352       -3.04069       -1.57567
H         -0.95651       -0.58499       -0.67177
