43
2msa1eda1tma_281.log	Energy: -1062666.1567358
S          0.85233       -1.91048        0.15257
O          0.36138       -0.91346       -0.83497
O         -0.03712       -3.05597        0.35156
O          1.20308       -1.20381        1.44885
H          0.29896       -0.08235        1.73107
C          2.41679       -2.51755       -0.44982
H          2.22932       -3.01541       -1.40189
H          3.10539       -1.67777       -0.57861
H          2.80156       -3.22911        0.28151
S         -3.59580       -0.00965       -0.24978
O         -5.02780       -0.18791       -0.15692
O         -2.88938        0.43321        0.97406
O         -3.26900        1.04166       -1.38602
H         -2.61307        1.75904       -1.04979
C         -2.83313       -1.48922       -0.85135
H         -3.35028       -1.76935       -1.76930
H         -1.77157       -1.29712       -1.02579
H         -2.95327       -2.25662       -0.08573
H          0.11066        2.89301        1.83360
H          1.37391        1.81826        1.19879
H          0.42020        2.75197       -0.75054
H         -0.27384        1.14379       -0.63201
H         -2.11464        2.63875        0.64904
H         -1.57427        3.72299       -0.45603
H         -0.31852        0.93664        2.95209
H         -1.27119        0.61821        1.62261
C          0.29601        1.98998        1.24442
C         -0.26549        2.13471       -0.16563
N         -0.30334        0.81416        1.94226
N         -1.61323        2.73502       -0.23125
N          4.20325        0.55763       -0.52529
C          4.04131        0.64324        0.91467
H          3.12567        0.12587        1.21796
H          4.88439        0.15543        1.41266
H          4.00031        1.69504        1.26907
C          5.46813        1.12511       -0.95365
H          6.29477        0.61404       -0.45153
H          5.59014        0.99071       -2.03231
H          5.54495        2.20754       -0.72936
C          3.08572        1.16981       -1.21899
H          3.22323        1.07597       -2.30000
H          2.15395        0.65800       -0.96027
H          2.98674        2.25075       -0.98033
