32
2msa2ma_165.log	Energy: -953957.1183337
S         -1.49478        0.88222       -0.52154
O         -2.87265        1.16351       -0.14002
O         -0.66848        0.37213        0.65343
O         -0.76599        2.03422       -1.13823
H          0.58312        2.38338       -0.40666
C         -1.48567       -0.43468       -1.71674
H         -1.93873       -1.30369       -1.22900
H         -2.07498       -0.10064       -2.57137
H         -0.45228       -0.63035       -2.00929
S          2.24034       -0.99465       -0.11645
O          2.80894        0.19045        0.55688
O          2.00252       -0.85614       -1.54640
O          0.95929       -1.46689        0.63238
H          0.21233       -0.70726        0.61749
C          3.31710       -2.36937        0.19226
H          4.26662       -2.14430       -0.29397
H          3.44492       -2.47676        1.26868
H          2.86170       -3.25849       -0.24306
N          1.43232        2.59428        0.20791
H          1.99510        1.72285        0.27464
C          0.96796        3.00656        1.55397
H          1.82496        3.16921        2.20758
H          0.37750        3.91810        1.46454
H          0.34094        2.20228        1.93789
H          1.99609        3.31241       -0.24083
N         -2.80453       -2.08730        0.85277
H         -2.60325       -2.93372        1.37338
C         -4.24318       -1.83447        0.78950
H         -4.73930       -1.77035        1.76948
H         -4.40606       -0.88811        0.26828
H         -4.72718       -2.62988        0.21431
H         -2.33125       -1.32103        1.32279
