32
2msa1a1dma_79.log	Energy: -953961.1657760
S         -2.59900       -0.51984       -0.28021
O         -1.37629       -0.35864       -1.12104
O         -3.83507       -0.76729       -1.01625
O         -2.68992        0.62948        0.69368
H         -1.41667        1.45678        0.52960
C         -2.29298       -1.95213        0.74881
H         -2.22296       -2.82721        0.10059
H         -1.36295       -1.78968        1.29645
H         -3.13157       -2.06058        1.43721
S          1.87341       -0.86563        0.43039
O          0.92818       -0.56673        1.49352
O          3.24178       -1.24959        0.76410
O          1.93880        0.44072       -0.48894
H          2.89676        0.57889       -0.85726
C          1.16515       -2.07131       -0.66021
H          1.02053       -2.98275       -0.07798
H          0.21176       -1.66558       -1.01847
H          1.86833       -2.24683       -1.47477
N          4.44121        0.65018       -1.23710
H          4.81175       -0.03241       -0.57761
H          4.89310        1.54141       -1.05905
H          4.68994        0.35510       -2.17596
N         -0.52608        2.00116        0.25397
C          0.08242        2.64162        1.43223
C         -0.88380        2.91640       -0.84639
H          0.10373        1.28158       -0.11381
H         -0.63215        3.34573        1.86158
H          0.32474        1.86343        2.15564
H          0.99282        3.16838        1.13853
H         -1.62296        3.63336       -0.48634
H          0.00765        3.44089       -1.19713
H         -1.31282        2.31657       -1.64939
