40
2msa1dma1eda_267.log	Energy: -1038020.5937579
S         -0.31819        2.47921        0.28764
O         -1.69847        2.58306       -0.19983
O          0.74995        2.70774       -0.69912
O         -0.07957        1.14971        0.99585
C         -0.12088        3.70297        1.57189
H         -0.88182        3.52781        2.33259
H          0.87928        3.60693        1.99438
H         -0.25451        4.68360        1.11413
S         -2.35107       -1.20168       -0.37782
O         -2.93827       -2.51435       -0.19691
O         -1.35691       -1.03011       -1.44495
O         -1.70687       -0.79941        1.00830
H         -1.12833        0.04394        0.97081
C         -3.61730        0.01725       -0.62332
H         -4.08392       -0.19695       -1.58552
H         -4.33851       -0.08118        0.18796
H         -3.13984        1.00112       -0.62190
N          1.80467       -2.64934        0.69123
C          0.81486       -3.70816        0.49350
C          1.68803       -2.00224        1.99789
H          2.74332       -3.02049        0.58645
H         -0.18837       -3.27499        0.52327
H          0.95622       -4.16762       -0.48786
H          0.87043       -4.49123        1.26403
H          0.70583       -1.52659        2.07401
H          1.79243       -2.70920        2.83392
H          2.45490       -1.22793        2.08190
H          2.63217       -0.52840       -2.49918
H          1.83393        1.05324       -2.28253
H          4.15924        1.28463       -1.63187
H          3.10772        1.45955       -0.22871
H          4.72967       -0.90484       -0.85742
H          4.75309        0.00548        0.49444
H          0.44095       -0.65823       -1.36821
H          1.64914       -1.27785       -0.37840
C          2.31448        0.22031       -1.76686
C          3.49111        0.73505       -0.95382
N          1.31112       -0.40332       -0.87991
N          4.14656       -0.35718       -0.23230
H          0.99799        0.26334       -0.14889
