37
2msa1ma1eda_295.log	Energy: -1013356.7576477
S         -1.78382       -1.54789       -0.22182
O         -2.38144       -0.55024       -1.10906
O         -1.46915       -1.09896        1.13923
O         -0.54421       -2.21928       -0.87755
H          0.32946       -1.58907       -0.86318
C         -2.87947       -2.94298       -0.12825
H         -3.81508       -2.58382        0.30122
H         -3.03691       -3.32357       -1.13700
H         -2.42382       -3.69821        0.51134
S          2.49005       -0.78124        0.20916
O          3.75669       -1.28839       -0.29822
O          1.39513       -0.74199       -0.84247
O          2.56250        0.55261        0.86978
H          1.50545        1.73574        0.47021
C          1.89014       -1.91543        1.45136
H          1.81299       -2.90468        0.99843
H          2.61794       -1.92493        2.26304
H          0.91362       -1.57264        1.79777
N         -1.55257        1.96352        1.34250
H         -2.08078        2.18367        0.49971
C         -2.12820        2.59148        2.53117
H         -3.16578        2.29213        2.72541
H         -1.52972        2.33048        3.40812
H         -2.10400        3.67971        2.42061
H         -1.56237        0.94590        1.42311
H          0.54871        4.02334       -1.18848
H          1.97586        2.99314       -1.45233
H          0.36144        2.23462       -3.01833
H          0.39043        1.02955       -1.73909
H         -1.76373        2.85376       -2.37717
H         -1.81288        1.32811       -1.75851
H          1.34299        3.32312        0.89635
H         -0.06706        2.39943        0.70978
C          0.93516        3.00249       -1.11682
C          0.09363        2.05740       -1.96809
N          0.92184        2.60086        0.31539
N         -1.33499        2.22455       -1.70905
