42
2msa2eda_97.log	Energy: -1072767.6502523
S         -2.59452        0.29478       -0.49181
O         -2.87098        1.71055       -0.77238
O         -2.82455       -0.12947        0.90490
O         -1.19503       -0.07858       -0.94095
C         -3.66814       -0.69045       -1.52208
H         -4.69843       -0.45042       -1.25690
H         -3.47088       -0.43789       -2.56404
H         -3.45200       -1.74224       -1.32440
S          3.10778       -0.23840       -0.29472
O          2.81471       -1.43443       -1.12841
O          2.27634       -0.21631        0.94351
O          3.02039        1.04284       -1.04154
C          4.80792       -0.39274        0.21859
H          4.91680       -1.32892        0.76620
H          5.42984       -0.39662       -0.67687
H          5.05165        0.45893        0.85374
H          0.91237        4.00847       -0.43425
H         -0.48538        3.37843       -1.34179
H         -1.18362        4.74968        0.65439
H         -1.77511        3.08583        0.69757
H          0.36878        4.19250        2.35514
H         -0.85627        3.18040        2.76640
H          1.46382        1.76248       -0.66229
H          0.72937        1.83661        0.82084
C          0.04874        3.33869       -0.39160
C         -0.87588        3.70258        0.76993
N          0.55976        1.96386       -0.18648
N         -0.19936        3.41728        2.03396
H         -0.12538        1.23692       -0.48923
H         -0.28513       -3.94494       -0.64290
H          0.94651       -3.98022        0.64295
H         -1.19451       -4.66761        1.54542
H         -0.74888       -3.12289        2.26661
H         -3.12328       -3.55687        1.22425
H         -2.45345       -2.08029        1.02110
H          1.17790       -2.00110       -0.66843
H         -0.40009       -1.49321       -0.36873
C          0.03523       -3.48672        0.29475
C         -1.07669       -3.60121        1.32937
N          0.38497       -2.07768        0.00283
N         -2.33264       -3.07374        0.81627
H          0.75979       -1.57493        0.81893
