35
2msa1ma1dma_137.log	Energy: -978623.5525715
S         -2.83696       -0.47804       -0.33046
O         -2.04069       -1.66301       -0.66019
O         -2.95094        0.57838       -1.31851
O         -2.36340        0.08871        1.06468
H         -1.59502        0.77593        1.02244
C         -4.46303       -1.02945        0.13582
H         -4.90533       -1.48536       -0.75060
H         -4.37055       -1.76002        0.93886
H         -5.04184       -0.16321        0.45448
S          0.72499        1.66794        0.25018
O          2.00350        1.38305        0.93159
O         -0.43665        1.71390        1.19190
O          0.45774        0.74498       -0.88791
H          0.39802       -0.90412       -0.41695
C          0.83996        3.30077       -0.44958
H          1.01282        4.00635        0.36311
H          1.67132        3.31058       -1.15456
H         -0.10113        3.51354       -0.95682
N          0.71136       -1.80606        0.00882
H          0.21469       -2.55353       -0.47000
C          0.43145       -1.80007        1.46246
H          0.79886       -2.72585        1.90669
H          0.94803       -0.94496        1.90130
H         -0.64057       -1.69511        1.62119
H          1.76484       -1.79914       -0.14647
N          3.35284       -1.06248       -0.21107
C          3.58535       -0.70106       -1.60875
C          4.50486       -1.70419        0.41181
H          3.11253       -0.20700        0.29730
H          3.73228       -1.60842       -2.20466
H          2.70935       -0.16746       -1.98682
H          4.47107       -0.06128       -1.73633
H          4.69619       -2.66783       -0.07209
H          5.42097       -1.09899        0.33759
H          4.29749       -1.88694        1.46941
