44
2msa2tma_65.log	Energy: -1052595.5488527
S          0.50477       -0.50650        1.23751
O         -0.14964       -1.70814        1.76792
O          0.28288       -0.33264       -0.24272
O          1.98816       -0.46840        1.49097
H          2.69566       -1.03538        0.26895
C         -0.17709        0.91673        2.04404
H         -1.24952        0.90980        1.83894
H          0.02489        0.81394        3.11070
H          0.28647        1.81506        1.62305
S         -3.20853       -0.75704       -0.47924
O         -4.36547       -0.80176       -1.34999
O         -2.94324        0.43638        0.31812
O         -1.93500       -1.05992       -1.38469
H         -1.09524       -0.76251       -0.91653
C         -3.24393       -2.15890        0.61788
H         -4.08894       -2.01577        1.29273
H         -3.38146       -3.05703        0.01589
H         -2.30061       -2.18547        1.16893
N          0.50770        3.41965       -0.02085
C          0.72735        4.84022        0.17426
H         -0.03397        5.24349        0.84842
H          1.70902        5.00660        0.62901
H          0.68398        5.40925       -0.77507
C          1.53831        2.83171       -0.85579
H          2.51943        2.97839       -0.39046
H          1.34996        1.75875       -0.94753
H          1.56636        3.27612       -1.87085
C         -0.81887        3.15172       -0.55754
H         -0.97651        2.07422       -0.64723
H         -1.57995        3.54221        0.12378
H         -0.96989        3.61482       -1.55110
N          3.17755       -1.51211       -0.57384
C          4.58017       -1.76483       -0.17906
H          5.06241       -0.81178        0.04027
H          4.58699       -2.38603        0.71718
H          5.10613       -2.27163       -0.99194
C          2.43021       -2.77218       -0.81146
H          2.45419       -3.36959        0.10054
H          1.39549       -2.51836       -1.04263
H          2.89090       -3.31657       -1.63934
C          3.07289       -0.59022       -1.72932
H          2.01587       -0.38551       -1.89839
H          3.58603        0.34052       -1.48450
H          3.53013       -1.05336       -2.60728
