35
2msa1ma1dma_05.log	Energy: -978642.1442526
S          2.64746       -0.20228       -0.24786
O          2.25093       -1.44734       -0.96809
O          2.22102       -0.20656        1.16686
O          2.22335        1.03255       -0.96674
H          0.82268        1.67945       -0.28887
C          4.43069       -0.18945       -0.28054
H          4.78730       -1.08307        0.23185
H          4.75197       -0.18774       -1.32219
H          4.77349        0.71063        0.22999
S         -2.66732       -0.20516       -0.27021
O         -2.69759        0.85073       -1.29040
O         -1.74353        0.12043        0.86597
O         -2.39039       -1.57291       -0.79787
H         -0.90185       -2.19006       -0.45735
C         -4.30053       -0.30364        0.44378
H         -4.54692        0.67061        0.86635
H         -4.99927       -0.56485       -0.35122
H         -4.29477       -1.07000        1.21874
N         -0.01166       -2.63555       -0.11036
H          0.02009       -3.58897       -0.46425
C          0.01841       -2.60073        1.37144
H          0.96217       -3.01430        1.72523
H         -0.06325       -1.55938        1.67671
H         -0.82678       -3.16917        1.76030
H          0.82568       -2.12575       -0.49877
N          0.03810        2.10887        0.25765
C         -0.62207        3.15030       -0.55596
C          0.59415        2.58730        1.54013
H         -0.64574        1.34042        0.45782
H          0.12069        3.88961       -0.86025
H         -1.07708        2.67199       -1.42258
H         -1.40478        3.62604        0.03731
H          1.30329        3.39352        1.34379
H         -0.21883        2.94828        2.17244
H          1.11047        1.75060        2.01206
