43
2msa1eda1tma_90.log	Energy: -1062681.7168497
S         -1.16523       -1.92231       -0.60432
O         -2.15648       -1.06992       -1.27168
O         -1.19470       -1.82181        0.88243
O          0.22701       -1.69457       -1.12363
C         -1.54724       -3.61767       -0.99868
H         -2.56222       -3.82162       -0.65708
H         -1.47324       -3.73615       -2.07974
H         -0.82973       -4.25945       -0.48745
S          2.88143       -0.04513        0.43310
O          2.23315        0.57497        1.59766
O          2.88130        0.73686       -0.79633
O          2.32107       -1.48392        0.19979
H          1.42052       -1.54088       -0.33322
C          4.54893       -0.44724        0.89073
H          5.04838        0.49376        1.12248
H          4.52040       -1.09790        1.76423
H          5.02413       -0.94151        0.04401
H         -1.28327        1.52385        3.08325
H         -1.41356        2.70514        1.75607
H         -3.62629        1.92012        2.21349
H         -3.14312        1.15345        0.69436
H         -4.18688       -0.29589        2.49028
H         -2.76236       -0.87068        1.92642
H          0.42012        0.98350        1.53282
H         -0.75923       -0.13941        1.23617
C         -1.52847        1.65183        2.02696
C         -2.95451        1.17297        1.77910
N         -0.55410        0.87987        1.21540
N         -3.19345       -0.10368        2.44004
H         -0.58610        1.21089        0.19502
N         -0.60368        2.08227       -1.30762
C         -1.99173        2.43378       -1.59339
H         -2.56946        1.51471       -1.72182
H         -2.41240        3.00665       -0.76011
H         -2.07740        3.04321       -2.50882
C          0.20682        3.26771       -1.04079
H         -0.20087        3.81306       -0.18254
H          1.23109        2.96076       -0.81229
H          0.22877        3.95364       -1.90408
C         -0.03724        1.30963       -2.41794
H          0.98524        1.01706       -2.17445
H         -0.63155        0.40783       -2.56806
H         -0.03175        1.90666       -3.34604
