28
2msa1dma_15.log	Energy: -918468.1511567
S         -2.03750       -0.76363       -0.04775
O         -1.43766        0.08720        1.03419
O         -1.03895       -1.74179       -0.56745
O         -2.69370        0.04231       -1.08597
C         -3.29025       -1.74578        0.75294
H         -2.81972       -2.31064        1.55765
H         -4.05311       -1.07255        1.14394
H         -3.71440       -2.41763        0.00641
S          2.20236       -0.46045        0.00198
O          2.20392        0.37135        1.20145
O          1.82520        0.19356       -1.24970
O          1.36117       -1.76519        0.21819
H          0.38312       -1.69512       -0.10185
C          3.81455       -1.18724       -0.17910
H          4.52276       -0.36822       -0.30798
H          4.03973       -1.75020        0.72650
H          3.80487       -1.83583       -1.05439
N         -0.82909        2.48935        0.15989
C          0.27249        3.01784        1.00042
C         -0.51221        2.41483       -1.29124
H         -1.08022        1.50682        0.50902
H          0.57905        3.99703        0.62797
H         -0.07940        3.09671        2.02946
H          1.10079        2.30801        0.96073
H         -0.33221        3.42214       -1.67181
H          0.37461        1.79078       -1.41169
H         -1.35633        1.94255       -1.79452
H         -1.67090        3.04859        0.28983
