28
2msa1dma_90.log	Energy: -918445.9522625
S          0.73374        1.61645       -0.06789
O          0.82506        0.62762       -1.12823
O         -0.54613        2.31530        0.08767
O          1.85313        2.75946       -0.30613
H          1.47618        3.45304       -0.86841
C          1.31194        0.96758        1.46770
H          0.52434        0.28872        1.80093
H          2.23335        0.40988        1.26041
H          1.44545        1.79808        2.15965
S         -2.46325       -0.71528        0.12445
O         -3.70204       -1.37063        0.47415
O         -1.34274       -0.70577        1.06099
O         -2.82522        0.79953       -0.24041
H         -2.04342        1.38294       -0.09957
C         -1.87601       -1.35716       -1.42792
H         -1.65389       -2.41337       -1.26871
H         -2.66754       -1.23964       -2.16778
H         -0.97476       -0.80934       -1.70727
N          2.93668       -1.36059       -0.02120
C          1.88844       -2.32069        0.29600
C          4.24081       -1.98209       -0.18816
H          2.67758       -0.86160       -0.86651
H          2.08890       -2.77124        1.27419
H          0.92192       -1.81242        0.35307
H          1.81006       -3.13919       -0.44048
H          4.56294       -2.41500        0.76495
H          4.25033       -2.78786       -0.94233
H          4.97637       -1.22741       -0.47882
