37
2msa1ma1eda_147.log	Energy: -1013364.2029911
S         -0.61006        1.84339       -0.11733
O          0.22412        1.80222        1.10193
O         -2.03554        1.53952        0.10978
O         -0.04755        0.95862       -1.20448
C         -0.50641        3.50122       -0.76372
H         -0.91539        4.18022       -0.01525
H          0.54313        3.72568       -0.95543
H         -1.08540        3.54364       -1.68626
S          2.85851       -0.74045       -0.16122
O          4.09742       -1.37162       -0.56142
O          1.72915       -1.58949        0.23885
O          2.40420        0.19930       -1.34724
H          1.44575        0.51910       -1.25106
C          3.16383        0.40165        1.16642
H          3.46505       -0.18492        2.03536
H          3.96906        1.06708        0.85497
H          2.24032        0.95492        1.35506
N         -0.93142       -0.81007        2.16431
H         -0.37976       -1.43051        2.74883
C         -2.22250       -0.49762        2.78588
H         -2.12768       -0.04179        3.77873
H         -2.75303        0.20143        2.13506
H         -2.81636       -1.41186        2.88061
H         -0.39111        0.04927        2.04370
H         -1.92227       -2.79756       -1.91870
H         -2.02237       -3.40685       -0.24517
H         -4.17960       -2.47084       -1.01345
H         -3.54696       -1.56345        0.36174
H         -4.35785       -0.38384       -1.86304
H         -3.06122        0.22647       -1.06027
H         -0.01247       -2.05523       -0.57006
H         -0.90463       -0.76012       -1.03020
C         -2.06110       -2.51250       -0.87356
C         -3.38862       -1.77994       -0.70653
N         -0.94164       -1.63248       -0.47853
N         -3.41976       -0.59374       -1.54822
H         -0.99831       -1.33906        0.55835
