40
2msa1dma1eda_19.log	Energy: -1038038.0933404
S          2.69806       -0.59414       -0.08551
O          2.25888       -1.61436        0.90710
O          3.03787        0.71553        0.50152
O          1.71370       -0.48171       -1.20834
C          4.19644       -1.23456       -0.81227
H          4.93360       -1.34744       -0.01702
H          3.97451       -2.19742       -1.27246
H          4.54349       -0.52059       -1.55936
S         -2.90848        0.17711       -0.26855
O         -3.25616       -1.12092       -0.86547
O         -2.59307        1.25713       -1.24036
O         -1.80904        0.04897        0.75202
C         -4.33804        0.73652        0.64257
H         -5.15520        0.86438       -0.06789
H         -4.58952       -0.02171        1.38418
H         -4.09508        1.68365        1.12426
N         -0.39082       -2.25693        0.50363
C         -0.51158       -2.80539       -0.86723
C         -0.97059       -3.12169        1.54869
H          0.61522       -2.05878        0.70762
H         -1.56681       -2.82809       -1.14166
H          0.03997       -2.14521       -1.53640
H         -0.07171       -3.80442       -0.88900
H         -2.03164       -3.26426        1.33831
H         -0.45532       -4.08364        1.55316
H         -0.84930       -2.63307        2.51547
H         -0.89226       -1.33557        0.54765
H          1.97327        2.45711       -0.99032
H          0.64224        3.42618       -1.67033
H          1.77035        4.41980        0.39828
H          0.01807        4.22260        0.56510
H          1.94474        2.24418        1.59791
H          0.96881        3.24578        2.49766
H          0.54473        0.81189       -0.99853
H         -0.03754        1.51214        0.38184
C          0.96907        2.84403       -0.80752
C          0.96416        3.67650        0.47674
N          0.08152        1.66827       -0.63364
N          1.07278        2.77086        1.61096
H         -0.87655        1.73984       -1.02762
