35
2msa1ma1dma_141.log	Energy: -978622.7174191
S          2.25519       -0.86193       -0.14370
O          1.95629        0.32351       -0.96598
O          2.14339       -2.16015       -0.77817
O          1.43344       -0.78496        1.18901
C          3.89224       -0.64377        0.51272
H          3.93521        0.31198        1.03407
H          4.10244       -1.47287        1.18769
H          4.57685       -0.65209       -0.33598
S         -1.98238       -1.04311        0.23250
O         -1.71424       -1.52210       -1.12805
O         -2.21943        0.43251        0.28691
O         -0.94473       -1.46363        1.23298
H          0.43238       -1.11412        1.12860
C         -3.47919       -1.80932        0.81717
H         -4.28507       -1.52500        0.14048
H         -3.32721       -2.88859        0.80713
H         -3.67509       -1.45373        1.82844
N          0.00505        2.06787        1.57001
H         -0.89465        1.59174        1.55476
C          0.07977        3.00540        2.68719
H         -0.05532        2.54582        3.67737
H          1.05097        3.50982        2.67955
H         -0.68838        3.77606        2.56900
H          0.69995        1.33392        1.67378
N         -0.46913        1.56400       -1.53927
C         -0.36425        3.03795       -1.51497
C         -0.77624        0.98116       -2.86516
H          0.42334        1.15350       -1.20578
H         -1.32003        3.46809       -1.81919
H         -0.11844        3.32180       -0.49026
H          0.41971        3.35134       -2.20651
H         -1.71248        1.40620       -3.23068
H          0.03696        1.21627       -3.55316
H         -0.88332       -0.09674       -2.74231
H         -1.18592        1.24430       -0.84814
