40
2msa1dma1eda_237.log	Energy: -1038022.4395143
S         -0.92945       -1.95124       -0.51720
O         -2.10154       -2.67119       -0.98544
O         -0.83553       -0.52480       -0.83334
O          0.34412       -2.69683       -1.07314
H          1.17491       -2.25651       -0.69461
C         -0.78043       -2.13756        1.24588
H         -1.67210       -1.67245        1.67218
H         -0.74231       -3.20424        1.46694
H          0.13144       -1.63005        1.56812
S          2.52659       -0.14549        0.38245
O          2.32307       -1.60911        0.17339
O          1.59977        0.43566        1.37681
O          2.53754        0.61622       -0.89691
H          1.00229        1.38799       -1.02215
C          4.17485       -0.01197        1.05130
H          4.20920       -0.57400        1.98473
H          4.87364       -0.42624        0.32448
H          4.38335        1.04324        1.22951
N          0.26339        2.12239       -0.95479
C         -0.50714        2.19300       -2.20854
C          0.93409        3.37741       -0.57344
H         -0.37249        1.84731       -0.14754
H          0.15877        2.46023       -3.03127
H         -0.94892        1.21318       -2.38703
H         -1.28969        2.94919       -2.10981
H          1.64799        3.66411       -1.34704
H          0.18740        4.16387       -0.44204
H          1.46280        3.20269        0.36399
H         -3.22512        1.97290        2.25232
H         -2.85142        3.05990        0.90723
H         -4.49951        1.52113        0.10593
H         -2.96360        1.04636       -0.63865
H         -4.34140       -0.36571        1.49824
H         -3.65640       -0.95540        0.12900
H         -0.85797        2.07451        2.09128
H         -1.24125        0.65796        1.38680
C         -2.75518        2.02552        1.25862
C         -3.50648        1.09517        0.31054
N         -1.33510        1.66710        1.29347
N         -3.55993       -0.25824        0.86107
