44
2msa2tma_38.log	Energy: -1052599.5463202
S          3.10033       -0.80025       -0.50906
O          3.07295        0.72741       -0.84839
O          2.48815       -1.59186       -1.57083
O          2.60058       -1.04254        0.84598
C          4.85909       -1.05386       -0.52279
H          5.23475       -0.80855       -1.51572
H          5.30614       -0.41505        0.23818
H          5.02862       -2.10678       -0.29599
S         -0.00656        2.08696        0.20174
O          0.49855        1.35776        1.39553
O         -1.45243        1.92457       -0.02151
O          0.79487        1.74832       -1.02050
H          2.11302        1.12810       -0.89675
C          0.29582        3.81588        0.51322
H          1.36506        3.95236        0.67591
H         -0.03762        4.37733       -0.35975
H         -0.27019        4.10588        1.39866
N         -3.82568       -0.75288       -0.70046
C         -3.28374       -0.25274       -1.95484
H         -2.61102        0.58588       -1.75432
H         -2.71704       -1.04498       -2.45593
H         -4.07637        0.08869       -2.64781
C         -4.69895       -1.88998       -0.91869
H         -4.15038       -2.69064       -1.42589
H         -5.05921       -2.27625        0.04085
H         -5.58244       -1.63730       -1.53733
C         -4.50660        0.30597        0.02596
H         -4.84163       -0.06816        1.00000
H         -3.81733        1.13938        0.18642
H         -5.39395        0.68594       -0.51601
N         -0.44430       -1.20379        1.35442
C          0.14687       -2.33352        2.10822
H          1.10253       -2.58652        1.65288
H          0.30598       -2.02277        3.14141
H         -0.54548       -3.17769        2.07351
C         -1.72253       -0.73867        1.95440
H         -1.54329       -0.49555        3.00222
H         -2.04765        0.14805        1.41178
H         -2.46819       -1.52914        1.85528
C         -0.61338       -1.52978       -0.08849
H         -0.95713       -0.63222       -0.60000
H          0.34489       -1.85254       -0.49492
H         -1.37284       -2.30783       -0.18201
H          0.19953       -0.37946        1.40075
