29
2msa1a1ma_01.log	Energy: -929320.9577756
S          2.55641       -0.24001       -0.10397
O          2.39530        0.91259       -1.02883
O          2.35741       -1.56183       -0.75976
O          1.70507       -0.09906        1.10943
C          4.25656       -0.20934        0.43101
H          4.88845       -0.32213       -0.45006
H          4.44261        0.74763        0.91862
H          4.41211       -1.03415        1.12646
S         -2.55640       -0.24003       -0.10396
O         -2.35742       -1.56185       -0.75976
O         -2.39525        0.91257       -1.02882
O         -1.70508       -0.09910        1.10944
C         -4.25656       -0.20933        0.43098
H         -4.88844       -0.32212       -0.45009
H         -4.41213       -1.03412        1.12644
H         -4.44260        0.74765        0.91858
N          0.00001       -2.35858        0.35867
H          0.87230       -2.21871       -0.20601
H          0.00003       -3.26712        0.81200
H         -0.00001       -1.60631        1.05973
H         -0.87231       -2.21875       -0.20600
N          0.00001        1.93084       -0.11660
H         -0.85829        1.68547       -0.65475
H          0.00007        1.27660        0.67775
C         -0.00007        3.33520        0.33173
H          0.89267        3.51980        0.92894
H         -0.00010        3.99020       -0.53926
H         -0.89285        3.51969        0.92892
H          0.85833        1.68556       -0.65477
