32
2msa2ma_78.log	Energy: -953963.2640234
S         -2.26298       -0.42783        0.11884
O         -2.25348        1.02906        0.25261
O         -1.79642       -1.20132        1.26389
O         -1.49943       -0.85944       -1.18643
H         -0.47953       -0.69111       -1.08623
C         -3.90270       -0.94935       -0.32311
H         -4.55260       -0.68499        0.51158
H         -4.20149       -0.42231       -1.22866
H         -3.89136       -2.02768       -0.47860
S          1.94880       -1.21136       -0.15674
O          3.11834       -1.53153       -0.96565
O          0.93358       -0.36845       -0.90885
O          2.24823       -0.55957        1.15194
H          1.77193        0.97504        1.33502
C          1.09535       -2.72576        0.23921
H          0.84539       -3.22681       -0.69674
H          1.77726       -3.33895        0.82893
H          0.19675       -2.48120        0.80868
N          1.19458        2.52889       -1.29239
H          1.89729        3.02064       -1.83538
C         -0.15507        2.99634       -1.64122
H         -0.38363        2.88904       -2.70826
H         -0.88853        2.41884       -1.07337
H         -0.26196        4.05002       -1.36854
H          1.27859        1.53315       -1.51121
N          1.50387        1.99708        1.39686
H          2.27055        2.48502        1.85431
C          0.22671        2.17656        2.12420
H          0.01383        3.24111        2.23131
H         -0.57114        1.70257        1.55154
H          0.29751        1.70923        3.10660
H          1.42647        2.33700        0.37953
