40
2msa1dma1eda_144.log	Energy: -1038020.6918314
S          0.94737       -2.02891       -0.41846
O          1.27649       -1.29928        0.83876
O          1.23430       -1.24704       -1.62942
O         -0.44844       -2.57872       -0.37722
C          1.98607       -3.47560       -0.44931
H          3.02364       -3.14204       -0.47898
H          1.78918       -4.05685        0.45129
H          1.73847       -4.04802       -1.34334
S         -2.49659        0.08714        0.45341
O         -2.07067        0.41649       -0.90341
O         -1.89374        0.89624        1.52271
O         -2.32255       -1.42935        0.74586
H         -1.49308       -1.87780        0.25866
C         -4.26045        0.24161        0.59101
H         -4.71839       -0.37957       -0.17812
H         -4.55599       -0.08436        1.58800
H         -4.50279        1.29378        0.43993
N          0.62241        1.62989       -2.13505
C          1.94073        1.72444       -2.75529
C         -0.35823        2.53893       -2.71829
H          0.29873        0.66542       -2.21348
H          2.37210        2.71202       -2.55718
H          2.59038        0.95725       -2.32841
H          1.90389        1.58040       -3.84528
H         -0.05177        3.57480       -2.53524
H         -0.46477        2.40303       -3.80504
H         -1.32720        2.36668       -2.24608
H          2.62812        2.41139        0.78434
H          1.21056        3.32166        1.36224
H          2.47578        2.63285        3.28822
H          0.99626        1.66571        3.25480
H          3.15679        0.43691        3.65165
H          2.36780       -0.15853        2.34767
H          0.71482        1.63968       -0.45801
H          1.11204        0.43490        0.65066
C          1.68804        2.33880        1.33621
C          1.96110        1.83241        2.74710
N          0.79126        1.42312        0.59703
N          2.83420        0.66615        2.71918
H         -0.15865        1.41469        0.99764
