35
2msa1ma1dma_200.log	Energy: -978620.7043813
S         -2.06972       -0.26800       -0.65783
O         -0.90710        0.38068       -1.34766
O         -2.31415        0.29285        0.67915
O         -1.94535       -1.75676       -0.65484
H         -1.07074       -2.29878        0.60127
C         -3.47848        0.10116       -1.68152
H         -3.57936        1.18500       -1.73832
H         -3.30365       -0.32464       -2.66940
H         -4.35765       -0.34509       -1.21670
S          2.40444       -0.57396       -0.46209
O          3.48234       -1.49645       -0.75020
O          1.63251       -0.78932        0.78029
O          1.41883       -0.60079       -1.68463
H          0.48994       -0.22189       -1.49461
C          3.00934        1.09031       -0.41174
H          3.74711        1.13158        0.39098
H          3.47871        1.29595       -1.37409
H          2.16278        1.76310       -0.20545
N         -0.41203       -2.45175        1.41762
H         -0.19450       -3.44189        1.50155
C         -0.99128       -1.89004        2.66282
H         -0.25337       -1.94505        3.46291
H         -1.26545       -0.85466        2.45768
H         -1.88605       -2.45232        2.92916
H          0.45771       -1.93400        1.16186
N          0.26862        2.55321        0.52515
C         -0.28428        3.87712        0.29203
C          0.25051        2.17859        1.93049
H         -0.27224        1.87265       -0.00299
H          0.36610        4.63512        0.74380
H         -0.33121        4.07122       -0.78311
H         -1.29636        4.00670        0.71364
H          0.89234        2.86088        2.50074
H         -0.75890        2.20592        2.37375
H          0.65171        1.16684        2.03748
