35
2msa1ma1dma_47.log	Energy: -978627.9735639
S         -2.63653       -0.37949        0.18769
O         -1.75705       -1.40145        0.78046
O         -2.76598       -0.41986       -1.26198
O         -2.21897        1.03615        0.69157
H         -1.17290        1.16312        0.78470
C         -4.24514       -0.51904        0.92578
H         -4.65549       -1.48186        0.62044
H         -4.13456       -0.46528        2.00816
H         -4.86196        0.29789        0.55159
S          1.11804        1.82525       -0.20577
O          2.53480        1.60320        0.11387
O          0.22848        1.33020        0.91012
O          0.67994        1.27147       -1.51001
H          0.41850       -0.47980       -1.38686
C          0.85628        3.58560       -0.29252
H          1.13807        4.01743        0.66785
H          1.48497        3.97804       -1.09197
H         -0.19761        3.76491       -0.50701
N          0.44863       -1.46191       -1.04449
H          1.38053       -1.54454       -0.51812
C          0.28244       -2.43541       -2.13749
H          0.34895       -3.44697       -1.73532
H         -0.69249       -2.28839       -2.60292
H          1.06893       -2.28462       -2.87751
H         -0.30662       -1.55278       -0.34673
N          2.71202       -1.36075        0.54038
C          3.87650       -2.22160        0.37082
C          2.12272       -1.44853        1.87759
H          2.96515       -0.38453        0.37196
H          3.57568       -3.27128        0.45878
H          4.30748       -2.06946       -0.62214
H          4.65726       -2.03043        1.12235
H          1.69219       -2.44515        2.02645
H          2.86153       -1.26941        2.67211
H          1.32717       -0.70437        1.96485
