35
2msa1ma1dma_14.log	Energy: -978638.5500478
S         -2.41768       -0.11579       -0.53643
O         -3.79262       -0.60020       -0.56282
O         -1.65454       -0.52763        0.70149
O         -2.25538        1.35612       -0.72675
H         -0.92397        1.82006        0.10061
C         -1.54060       -0.87238       -1.89878
H         -2.04741       -0.57917       -2.81881
H         -0.50877       -0.51376       -1.90052
H         -1.58470       -1.95640       -1.78031
S          2.24517       -0.15382       -0.45564
O          1.60227        0.76584       -1.40789
O          2.04853       -1.59788       -0.76586
O          1.84925        0.14580        0.96227
H          0.77603       -1.77604        1.91703
C          4.00440        0.12419       -0.55483
H          4.31935       -0.09927       -1.57440
H          4.19928        1.16979       -0.31532
H          4.50215       -0.53569        0.15560
N          0.25878       -2.24714        1.17406
H         -0.55234       -1.59934        0.93244
C         -0.20000       -3.59975        1.53642
H         -0.71279       -4.03434        0.67866
H          0.65169       -4.22519        1.80552
H         -0.89732       -3.53642        2.37174
H          0.91153       -2.22098        0.35722
N         -0.16356        2.12614        0.76706
C         -0.78554        2.30470        2.09353
C          0.50331        3.32687        0.22805
H          0.52547        1.34977        0.81730
H         -1.52549        3.10440        2.03656
H         -1.28175        1.36982        2.35458
H         -0.01703        2.55473        2.82745
H         -0.24005        4.11245        0.08287
H          1.26892        3.66299        0.93024
H          0.96153        3.05533       -0.72279
