37
2msa1ma1eda_579.log	Energy: -1013340.0683745
S         -2.52084       -1.33946       -0.07501
O         -3.38958       -0.54232       -0.92548
O         -2.10641       -0.80157        1.21597
O         -1.24490       -1.78128       -0.90699
H         -0.39377       -1.43970       -0.50569
C         -3.29181       -2.92275        0.17775
H         -4.23710       -2.74202        0.69049
H         -3.46532       -3.37820       -0.79702
H         -2.62972       -3.53724        0.78704
S          1.79829        0.04481        0.48348
O          1.10868       -1.17922        0.04655
O          2.23127        0.96113       -0.57526
O          3.04614       -0.37090        1.33139
H          3.95010       -0.22311        0.75032
C          0.78721        0.88679        1.66190
H         -0.09501        1.24615        1.12756
H          0.50274        0.17236        2.43386
H          1.36435        1.71519        2.07149
N          5.05607        0.00146       -0.17198
H          4.78624        0.87052       -0.62862
C          5.09741       -1.09673       -1.15177
H          5.83584       -0.93090       -1.94206
H          5.32950       -2.02874       -0.63328
H          4.10838       -1.19416       -1.60344
H          5.96199        0.14269        0.26450
H         -3.27072        2.54681       -0.78627
H         -2.60682        4.05413       -0.13662
H         -1.27690        3.32896       -2.01924
H         -0.31183        3.25032       -0.53291
H         -1.58364        0.91583       -1.78065
H          0.02917        1.24227       -1.71579
H         -3.03106        2.69089        1.69701
H         -2.27853        1.39635        1.05622
C         -2.41864        2.97917       -0.23531
C         -1.15347        2.79182       -1.06438
N         -2.25887        2.41255        1.10175
N         -0.85619        1.37162       -1.23703
