34
2msa1a1eda_158.log	Energy: -988702.8226079
S          0.24008        2.35344        0.04240
O          1.09052        3.46919       -0.31617
O          0.79453        1.36450        0.98572
O         -0.18158        1.62380       -1.28077
H         -0.55037        0.67599       -1.11786
C         -1.29422        2.94455        0.71119
H         -1.06667        3.43453        1.65859
H         -1.70904        3.65677       -0.00233
H         -1.95830        2.08653        0.84579
S         -2.17787       -1.08363       -0.08292
O         -0.96845       -0.74540       -0.91543
O         -2.82387        0.11417        0.47060
O         -1.82459       -2.12069        0.92338
H         -0.29947       -1.72473        1.55988
C         -3.33284       -1.85143       -1.20117
H         -2.85595       -2.72574       -1.64365
H         -4.21338       -2.13941       -0.62636
H         -3.59503       -1.12139       -1.96697
N          0.61520       -1.31178        1.86496
H          0.67578       -1.31990        2.87915
H          0.64351       -0.33168        1.53290
H          1.43543       -1.84086        1.43867
H          3.73301       -2.54948       -1.29163
H          1.99181       -2.88489       -1.20836
H          2.49399       -0.60704       -2.13543
H          1.46961       -0.58435       -0.71600
H          4.19544        0.36169       -0.88456
H          2.94796        0.88847        0.04063
H          3.15099       -3.43717        0.86979
H          3.59170       -1.85435        1.00954
C          2.79406       -2.26668       -0.79387
C          2.48700       -0.79175       -1.05371
N          2.86951       -2.48497        0.66007
N          3.41632        0.06067       -0.31172
