32
2msa2ma_69.log	Energy: -953964.1762025
S          2.24626       -0.47201       -0.06829
O          2.43354        0.96923        0.11589
O          1.70366       -0.90014       -1.35663
O          1.40956       -1.06938        1.11012
H          0.40070       -0.75856        1.03167
C          3.79929       -1.28500        0.21383
H          4.49148       -0.91837       -0.54460
H          4.14710       -1.02660        1.21357
H          3.64802       -2.35924        0.11339
S         -2.05008       -1.05510        0.27167
O         -2.93391       -1.55240        1.31587
O         -0.88506       -0.23652        0.80006
O         -2.71274       -0.26499       -0.80570
H         -1.93773        1.14866       -1.08280
C         -1.29411       -2.45838       -0.53416
H         -0.81497       -3.07125        0.23044
H         -2.08696       -3.01998       -1.02903
H         -0.55546       -2.09717       -1.25146
N          0.17787        2.89555        0.70639
H          0.95755        2.23788        0.64173
C         -0.49901        2.75438        2.00522
H          0.17402        2.90929        2.85656
H         -1.31459        3.47986        2.07181
H         -0.92268        1.75032        2.06732
H          0.58340        3.82276        0.61891
N         -1.36072        1.97707       -1.38946
H         -1.99395        2.69385       -1.73617
C         -0.40913        1.54071       -2.43619
H          0.21873        2.38085       -2.73642
H          0.21955        0.74921       -2.02614
H         -0.95926        1.15716       -3.29582
H         -0.81653        2.37008       -0.54462
