42
2msa2eda_192.log	Energy: -1072758.2015787
S          2.24801        0.50048       -0.99688
O          2.86162       -0.44790       -0.05702
O          2.06978        1.87404       -0.45985
O          0.93993       -0.00530       -1.55114
C          3.33848        0.64952       -2.39853
H          4.29104        1.03841       -2.03786
H          3.46689       -0.34086       -2.83572
H          2.88738        1.33589       -3.11495
S         -0.32851       -2.45830        0.47556
O         -1.26215       -3.55835        0.60118
O         -0.75662       -1.14290        0.98647
O          0.05307       -2.31443       -1.04076
H          0.46120       -1.39380       -1.25055
C          1.20693       -2.86670        1.26635
H          1.54737       -3.81722        0.85519
H          1.91947       -2.06574        1.05197
H          1.00572       -2.95769        2.33440
H         -0.98023        3.05867        2.00073
H         -1.68555        1.43164        2.22911
H          0.12092        1.72454        3.81479
H          0.63075        0.53814        2.60804
H          2.22539        2.43722        3.23542
H          2.00671        2.25059        1.62584
H         -1.36764        2.00600       -0.10861
H          0.32559        2.02690        0.12688
C         -0.79511        1.98506        1.92077
C          0.41348        1.60584        2.76688
N         -0.57234        1.66120        0.48911
N          1.53621        2.49574        2.49547
H         -0.52264        0.63663        0.38689
H         -4.44884        1.42972       -2.03584
H         -2.84512        1.52828       -2.77986
H         -3.39241       -0.77168       -1.94726
H         -1.92450       -0.10632       -1.25776
H         -4.44344       -0.50422        0.12875
H         -2.90316       -0.76123        0.63024
H         -3.11084        3.34750       -1.27204
H         -3.51587        2.32883       -0.04669
C         -3.36898        1.37839       -1.83099
C         -3.01282        0.00339       -1.26745
N         -2.94783        2.42353       -0.88600
N         -3.50134       -0.13039        0.10524
