42
2msa2eda_209.log	Energy: -1072757.7126547
S         -0.03377        1.81172       -1.04209
O          1.22748        2.12963       -0.35517
O         -1.23514        1.93515       -0.17159
O         -0.00094        0.46748       -1.71215
C         -0.25481        2.99953       -2.35195
H         -0.30478        3.98988       -1.89924
H          0.59914        2.92463       -3.02544
H         -1.18273        2.76629       -2.87405
S          2.53447       -1.43440       -0.14672
O          3.35229       -2.62561       -0.21505
O          1.39682       -1.42298        0.78364
O          2.01717       -1.12676       -1.60402
H          1.24226       -0.47361       -1.61436
C          3.55028       -0.02777        0.23812
H          3.94226       -0.18041        1.24461
H          4.36167        0.00513       -0.48905
H          2.92464        0.86637        0.17899
H         -1.64210        0.10054        3.44908
H         -0.25972       -1.01721        3.27187
H          0.61130        1.06695        4.07048
H          1.09050        0.92935        2.37285
H          0.08083        3.11708        3.18222
H         -0.61603        2.51704        1.83730
H         -1.86078       -1.02567        1.34892
H         -1.32065        0.53978        0.98297
C         -0.71933       -0.09878        2.89994
C          0.23133        1.08313        3.04428
N         -1.07071       -0.33647        1.47620
N         -0.47072        2.34353        2.82990
H         -0.24272       -0.71614        0.98775
H         -4.66663       -2.39298       -0.62150
H         -4.72261       -0.95708        0.41489
H         -4.02828       -0.45020       -1.94285
H         -2.84031        0.06153       -0.75482
H         -2.54283       -2.12565       -2.62637
H         -1.43482       -1.05803       -2.03098
H         -3.54373       -2.81218        1.46820
H         -2.44845       -2.78738        0.23879
C         -4.04984       -1.62048       -0.13839
C         -3.29991       -0.82240       -1.20825
N         -3.07998       -2.21055        0.79544
N         -2.23778       -1.63363       -1.79540
