43
2msa1eda1tma_183.log	Energy: -1062672.2804439
S          1.09366       -0.19878        0.94839
O          0.76964        1.18177        0.56920
O          1.29249       -1.14518       -0.14524
O          0.00700       -0.74461        1.94801
H         -0.91642       -0.77978        1.48863
C          2.51648       -0.18594        1.99850
H          3.35175        0.12695        1.35669
H          2.33668        0.51859        2.81011
H          2.66784       -1.19690        2.37702
S         -2.65778       -1.39563       -0.46488
O         -4.07179       -1.75029       -0.48051
O         -2.24515       -0.72331        0.82769
O         -2.21721       -0.55299       -1.61970
H         -1.69799        0.89554       -1.21675
C         -1.68565       -2.88635       -0.55413
H         -1.95637       -3.51472        0.29501
H         -1.93302       -3.38382       -1.49230
H         -0.62882       -2.61306       -0.52680
H         -2.40829        3.76314       -0.74673
H         -3.09254        2.68417       -1.99647
H         -4.54117        2.92028        0.08103
H         -4.11033        1.25544       -0.30031
H         -3.55847        2.56101        2.08237
H         -2.95149        1.10268        1.59199
H         -0.70510        2.24373       -1.46718
H         -1.14050        1.83714        0.06267
C         -2.69665        2.73512       -0.97964
C         -3.70658        2.21353        0.04627
N         -1.47918        1.89158       -0.90892
N         -3.05802        2.08333        1.34603
N          4.60935        0.27033       -0.47269
C          3.84023        0.91740       -1.52442
H          2.86692        0.42894       -1.61807
H          3.67581        1.96864       -1.26955
H          4.35286        0.87165       -2.50421
C          5.89865        0.91219       -0.28754
H          5.75483        1.97085       -0.05147
H          6.43089        0.44396        0.54627
H          6.53908        0.84386       -1.18776
C          4.75546       -1.15326       -0.73398
H          5.29117       -1.62776        0.09465
H          3.76623       -1.61220       -0.81528
H          5.31583       -1.35375       -1.66648
