42
2msa2eda_128.log	Energy: -1072765.8462002
S         -1.94317       -1.45816       -0.68871
O         -1.21298       -2.70844       -0.32959
O         -1.35600       -0.72589       -1.82454
O         -2.13104       -0.57916        0.50806
C         -3.57344       -1.98995       -1.17871
H         -3.46493       -2.66106       -2.03090
H         -4.03441       -2.50613       -0.33668
H         -4.15047       -1.10742       -1.45592
S          2.74157        0.34828       -0.99040
O          4.14137        0.60739       -1.30295
O          1.91570        1.57838       -0.78798
O          2.56089       -0.57792        0.18701
H          1.39232       -1.44407        0.83119
C          2.00763       -0.50582       -2.37651
H          2.12831        0.13142       -3.25349
H          2.54500       -1.44449       -2.51713
H          0.94793       -0.68295       -2.17644
H         -0.71635        3.27027       -1.10500
H         -1.46978        1.73545       -1.59964
H         -3.22560        3.38692       -0.93646
H         -3.19827        1.99299        0.15491
H         -2.12225        4.64934        0.76709
H         -3.17732        3.74777        1.63369
H          0.45416        1.54586       -0.07535
H         -0.51383        2.22394        1.13538
C         -1.31664        2.42202       -0.76460
C         -2.63736        2.87863       -0.16024
N         -0.53350        1.69723        0.25921
N         -2.37206        3.69959        1.02167
H         -0.99416        0.78790        0.45400
H          2.05755       -1.06798        3.54169
H          0.62362       -0.34766        4.27605
H         -0.10712       -2.37185        3.24991
H         -0.72872       -1.03808        2.25863
H          1.43316       -2.90261        1.61061
H          0.05725       -2.48614        0.71930
H          1.65662        1.38728        3.16734
H          1.90030        0.54146        1.79282
C          1.09887       -0.57176        3.31595
C          0.17802       -1.54555        2.59371
N          1.25126        0.67488        2.56988
N          0.80383       -2.13777        1.37532
