32
2msa2ma_15.log	Energy: -953976.4018879
S          2.51182        0.07032        0.36480
O          1.47117        0.55674       -0.61371
O          3.71883        0.88916        0.39869
O          2.73378       -1.38925        0.13850
H          1.38965       -2.04913       -0.50107
C          1.72117        0.19326        1.96595
H          1.55502        1.24885        2.18787
H          0.76993       -0.34281        1.93160
H          2.39526       -0.23967        2.70587
S         -2.21630       -0.22145        0.45025
O         -1.31278       -1.29430        0.96083
O         -2.21870       -0.14433       -1.02495
O         -1.95878        1.09548        1.10230
H         -0.93563        2.09985        0.25178
C         -3.85770       -0.68947        0.96907
H         -4.09475       -1.65145        0.51428
H         -3.86413       -0.76502        2.05645
H         -4.55380        0.07802        0.63055
N          0.43598       -2.34415       -0.85695
H          0.35302       -3.35501       -0.78107
C          0.22196       -1.87363       -2.24543
H         -0.81722       -2.03756       -2.52759
H          0.44345       -0.80813       -2.25788
H          0.90053       -2.40513       -2.91315
H         -0.26429       -1.91645       -0.20138
N         -0.23591        2.52678       -0.40758
H          0.12608        3.39428       -0.01995
C         -0.84579        2.71999       -1.74303
H         -0.07523        3.01770       -2.45421
H         -1.29259        1.76870       -2.03433
H         -1.62216        3.48351       -1.68605
H          0.55209        1.81040       -0.46369
