44
2msa2tma_74.log	Energy: -1052595.1353741
S         -0.62590       -0.60284       -0.27748
O          0.13081       -0.51041        0.97766
O         -1.28179        0.69681       -0.65681
O         -1.68104       -1.67683       -0.25615
H         -3.03910       -1.03818       -0.01954
C          0.49354       -1.02045       -1.58708
H          1.16409       -0.16661       -1.70505
H          1.05984       -1.90771       -1.28436
H         -0.09099       -1.19150       -2.49108
S          1.50693        2.85331       -0.03975
O          2.01477        4.20795       -0.11484
O          1.94495        1.85616       -1.01071
O         -0.08146        2.95570       -0.08234
H         -0.49378        2.07528       -0.33311
C          1.80989        2.20564        1.59085
H          2.89012        2.09336        1.69471
H          1.42791        2.92333        2.31689
H          1.30569        1.24000        1.66979
N          2.86601       -2.70972       -0.03972
C          2.25345       -3.22084        1.17562
H          1.47578       -2.52914        1.50951
H          1.79265       -4.19381        0.97754
H          2.99121       -3.34853        1.99242
C          3.87186       -3.62209       -0.54998
H          3.41960       -4.59748       -0.75439
H          4.28783       -3.23300       -1.48435
H          4.70665       -3.77185        0.16289
C          3.41493       -1.37967        0.17254
H          3.81523       -0.98464       -0.76591
H          2.62315       -0.70679        0.51136
H          4.22712       -1.37852        0.92535
N         -4.00519       -0.58071        0.14409
C         -4.37046        0.09771       -1.12264
H         -3.57363        0.80088       -1.36615
H         -4.44572       -0.65244       -1.91065
H         -5.32766        0.61016       -0.99857
C         -4.94514       -1.66726        0.49418
H         -4.96953       -2.39049       -0.32145
H         -4.59112       -2.15982        1.40024
H         -5.94271       -1.25236        0.65794
C         -3.83554        0.39023        1.25314
H         -3.47577       -0.14341        2.13359
H         -3.08974        1.12429        0.94879
H         -4.79430        0.86999        1.46464
