42
2msa2eda_140.log	Energy: -1072762.3606549
S         -2.50425       -0.27143       -0.65356
O         -2.26377       -1.47494        0.17841
O         -1.78819       -0.25851       -1.94391
O         -2.25175        0.99313        0.11957
H         -0.92960        1.70213       -0.62806
C         -4.25070       -0.28013       -1.01335
H         -4.47268       -1.19358       -1.56554
H         -4.79306       -0.25948       -0.06802
H         -4.48262        0.59990       -1.61332
S          2.18020       -1.14475       -0.88799
O          3.60515       -0.94983       -1.13004
O          1.49360        0.06988       -0.31455
O          1.84659       -2.33239       -0.04489
H          0.62906       -2.15577        0.97149
C          1.37894       -1.42478       -2.45975
H          1.65544       -0.60752       -3.12810
H          1.74836       -2.37035       -2.85799
H          0.29794       -1.44975       -2.30537
H         -0.25713       -1.80010        3.79470
H          1.39891       -1.86623        3.12080
H          0.90928        0.41179        3.69570
H          0.91846        0.30520        1.93110
H         -1.07357        1.40534        3.35590
H         -1.41494        0.64958        1.94128
H         -0.35056       -3.13414        1.89353
H         -0.97622       -1.72260        1.31247
C          0.38163       -1.49934        2.96155
C          0.36049        0.01989        2.83350
N         -0.12147       -2.15678        1.72387
N         -1.00786        0.52286        2.86618
H          1.08715        3.74790       -1.45162
H         -0.51544        4.01238       -0.70895
H          1.05359        4.30192        1.04686
H          0.36683        2.69623        1.31369
H          2.90422        2.96109        1.39105
H          2.41087        1.78709        0.35077
H         -0.37180        1.98781       -2.15226
H          0.62728        1.26663       -1.01459
C          0.36412        3.36386       -0.72921
C          1.02132        3.28430        0.64567
N         -0.09067        2.02040       -1.17391
N          2.38389        2.78807        0.53987
