32
2msa2ma_114.log	Energy: -953960.8182487
S          2.01053       -0.84706       -0.21988
O          2.38100       -2.05985       -0.93297
O          1.22903       -1.04168        1.01944
O          1.24815        0.14564       -1.16624
H          0.22359        0.07106       -1.08847
C          3.43388        0.12123        0.17963
H          4.05024       -0.48149        0.84760
H          3.96311        0.33124       -0.75027
H          3.06180        1.03670        0.66151
S         -2.11151        0.64223       -0.04912
O         -1.24935       -0.12376       -1.02089
O         -1.39579        1.73022        0.61961
O         -2.79775       -0.31695        0.86622
H         -1.85938       -1.63825        1.10389
C         -3.40136        1.37018       -1.03931
H         -3.93060        0.57219       -1.55975
H         -4.07187        1.90887       -0.36954
H         -2.93487        2.05451       -1.74816
N          1.56636        2.60507        1.07794
H          0.67418        2.11532        1.12171
C          1.59956        3.42042       -0.13568
H          0.78062        4.14950       -0.21388
H          2.54920        3.96295       -0.18992
H          1.54516        2.75741       -1.00356
H          1.60930        3.19732        1.90061
N         -1.12433       -2.39929        1.11600
H         -0.20333       -1.90420        1.15078
C         -1.19677       -3.21450       -0.12084
H         -0.34931       -3.89856       -0.15711
H         -2.13733       -3.76491       -0.13776
H         -1.15667       -2.52348       -0.96240
H         -1.22641       -2.96236        1.95688
