34
2msa1a1eda_64.log	Energy: -988706.1077706
S         -0.87119       -1.88732       -0.21714
O         -0.07447       -1.93572       -1.44744
O         -2.09317       -1.04449       -0.29272
O         -0.04582       -1.49059        0.98408
C         -1.43357       -3.54253        0.12974
H         -2.06778       -3.85802       -0.69904
H         -0.55823       -4.18696        0.21203
H         -1.99702       -3.52877        1.06259
S          2.47874        0.63948       -0.26439
O          3.69063        1.36113        0.05751
O          1.22812        1.40391       -0.39400
O          2.28705       -0.47369        0.83804
H          1.36097       -0.89994        0.81795
C          2.69340       -0.28346       -1.76561
H          2.82250        0.44296       -2.56886
H          3.58595       -0.89891       -1.65338
H          1.79799       -0.89193       -1.91697
N         -0.31812        0.43873        3.31494
H          0.64048        0.73717        3.47034
H         -0.27440       -0.48010        2.87254
H         -0.75947        0.33866        4.22265
H         -2.92911        2.66158        1.01677
H         -1.35882        3.46562        0.74008
H         -2.70549        3.62270       -1.27640
H         -1.33008        2.55640       -1.58592
H         -3.65944        1.79176       -2.30236
H         -2.86801        0.68465       -1.39273
H         -1.08129        1.26406        1.85135
H         -1.77913        0.52455        0.51911
C         -1.99352        2.62300        0.45509
C         -2.28400        2.64084       -1.04070
N         -1.27840        1.38005        0.82917
N         -3.26641        1.62159       -1.38484
H         -0.35252        1.34592        0.36498
