35
2msa1ma1dma_204.log	Energy: -978620.0382486
S         -0.70663       -2.26553       -0.07427
O         -0.77196       -3.63095        0.39845
O          0.10803       -1.41787        0.96773
O         -1.98046       -1.57855       -0.36041
H         -2.69019       -0.02884       -0.25305
C          0.28993       -2.18598       -1.54285
H          1.24955       -2.65225       -1.31706
H         -0.23381       -2.74334       -2.32042
H          0.40817       -1.13318       -1.80935
S         -0.07512        1.84152       -0.32301
O         -1.26427        2.67839       -0.65387
O          0.40169        1.00823       -1.43564
O         -0.39312        1.01988        0.90637
H         -0.09916       -0.39890        0.91726
C          1.24496        2.92769        0.15116
H          1.49040        3.55098       -0.70930
H          0.90689        3.53594        0.99010
H          2.08088        2.27625        0.43002
N         -3.20594        0.86693       -0.11488
H         -2.55625        1.64321       -0.41697
C         -3.55225        1.02441        1.31839
H         -4.09180        1.96073        1.45841
H         -4.16047        0.17948        1.64022
H         -2.61357        1.04908        1.87055
H         -4.02961        0.85813       -0.71221
N          3.03121        0.10543        0.47233
C          3.97553       -0.30263        1.49901
C          3.57667        0.01586       -0.87248
H          2.19519       -0.46647        0.53773
H          4.81085        0.40621        1.52820
H          3.48579       -0.28636        2.47602
H          4.39674       -1.31041        1.33693
H          4.40176        0.72977       -0.97841
H          3.97121       -0.98580       -1.12162
H          2.80033        0.28443       -1.59311
