41
2msa1dma1tma_79.log	Energy: -1027941.1769219
S          1.97899       -0.86186        1.06838
O          2.78108       -1.85049        1.77590
O          0.48892       -1.10669        1.24352
O          2.27701       -0.74001       -0.39343
H          1.01741       -1.34105       -1.24014
C          2.27248        0.74656        1.76900
H          2.01794        0.70001        2.82841
H          3.33212        0.97150        1.64141
H          1.64847        1.46480        1.22473
S         -2.57503        0.03732        0.42624
O         -2.21473       -0.94695       -0.61169
O         -3.41348        1.15243        0.03773
O         -1.27704        0.59938        1.07897
H         -0.48942       -0.10601        1.13960
C         -3.35895       -0.86372        1.74527
H         -4.26939       -1.30984        1.34413
H         -2.66751       -1.63206        2.09324
H         -3.59245       -0.15685        2.54128
N          0.18235       -1.82978       -1.66543
C          0.24710       -3.25338       -1.26743
C          0.13324       -1.60528       -3.12272
H         -0.65678       -1.41025       -1.22239
H          1.15274       -3.69856       -1.68143
H          0.27998       -3.29619       -0.17869
H         -0.63691       -3.77242       -1.64113
H          1.04201       -2.00123       -3.57822
H         -0.74245       -2.10593       -3.53861
H          0.06306       -0.53416       -3.31162
N          0.79919        2.63757       -0.54140
C         -0.25189        3.58883       -0.22299
H         -1.18424        3.05541       -0.02370
H          0.02045        4.14956        0.67658
H         -0.42641        4.31336       -1.04160
C          2.07412        3.29439       -0.76457
H          2.35595        3.86745        0.12478
H          2.84756        2.54167       -0.94734
H          2.05113        3.98833       -1.62670
C          0.43976        1.80276       -1.67102
H          1.22365        1.05372       -1.82078
H         -0.50511        1.29144       -1.46262
H          0.31493        2.38307       -2.60662
