28
2msa1dma_29.log	Energy: -918464.5281868
S          1.22843        1.30254       -0.09266
O          0.58292        0.76160       -1.32654
O          2.66234        1.55834       -0.25561
O          0.94541        0.37121        1.06827
H          1.57740       -0.99071        0.75715
C          0.39457        2.81794        0.30814
H          0.80968        3.19763        1.24181
H          0.57925        3.51623       -0.50860
H         -0.67079        2.59755        0.39668
S         -2.56472       -0.27602       -0.02507
O         -3.78444       -0.97053       -0.38158
O         -2.51096        1.17964       -0.04120
O         -1.40625       -0.84557       -0.95956
H         -0.68736       -0.14988       -1.11730
C         -2.04767       -0.82610        1.58928
H         -2.79135       -0.46906        2.30292
H         -2.02060       -1.91635        1.58631
H         -1.06634       -0.39181        1.78919
N          2.10945       -1.87902        0.43773
C          3.55741       -1.54655        0.44797
C          1.59237       -2.28336       -0.89613
H          1.91651       -2.61431        1.11584
H          3.69828       -0.64643       -0.15337
H          3.85811       -1.33263        1.47356
H          4.13002       -2.38465        0.04770
H          1.76307       -1.45884       -1.58913
H          2.10874       -3.18509       -1.22911
H          0.51770       -2.45190       -0.81990
