42
2msa2eda_427.log	Energy: -1072748.3536019
S         -0.04609       -1.77150        0.01351
O         -0.94764       -2.58460       -0.79481
O         -0.63965       -1.13158        1.20713
O          0.64032       -0.67779       -0.81549
C          1.29317       -2.80730        0.57379
H          2.00856       -2.19286        1.12304
H          0.86295       -3.57583        1.21667
H          1.76012       -3.26231       -0.30056
S          3.67621        0.43977       -0.01750
O          3.67187       -0.40701        1.16660
O          3.04623        1.76127        0.11354
O          3.07569       -0.32122       -1.25321
H          2.07054       -0.54055       -1.10346
C          5.33803        0.66966       -0.59469
H          5.86888        1.21540        0.18590
H          5.78420       -0.31185       -0.75195
H          5.30719        1.24388       -1.51995
H         -0.30527        3.66551        0.00859
H         -0.10935        2.56684       -1.38022
H         -2.56751        3.02269       -0.83242
H         -2.14775        1.32545       -0.73593
H         -2.82218        3.03209        1.48152
H         -2.92958        1.37365        1.30792
H          1.22033        1.96923        0.67024
H         -0.30437        1.61786        1.37548
C         -0.49386        2.65481       -0.36255
C         -1.97800        2.29679       -0.26231
N          0.24142        1.70516        0.50492
N         -2.34933        2.20281        1.14543
H          0.28228        0.76221        0.05675
H         -6.09010       -0.66508       -0.05468
H         -5.52080       -0.76132       -1.72624
H         -4.10222       -2.12343       -0.30797
H         -3.17439       -0.78074       -0.95749
H         -4.22166       -0.95013        1.77053
H         -2.65845       -0.89053        1.28486
H         -5.96603        1.52140       -1.13255
H         -4.86448        1.45204        0.07741
C         -5.27053       -0.37015       -0.73441
C         -3.98278       -1.03191       -0.26502
N         -5.10320        1.07862       -0.83629
N         -3.59941       -0.55656        1.07015
