30
2msa1eda_111.log	Energy: -953196.6370605
S         -1.04324       -1.57398       -0.04103
O         -0.47623       -0.99666       -1.29172
O         -2.47880       -1.91634       -0.18809
O         -0.83275       -0.64673        1.12394
H         -2.19586        0.39144        0.98873
C         -0.13301       -3.05384        0.31399
H         -0.28437       -3.74187       -0.51804
H          0.91812       -2.77098        0.39920
H         -0.51601       -3.47513        1.24328
S          2.61148        0.27674       -0.08616
O          3.80182        0.99253       -0.49273
O          2.61146       -1.17919       -0.01954
O          1.42527        0.74272       -1.05069
H          0.74316        0.00777       -1.16106
C          2.07116        0.90490        1.49045
H          1.12819        0.41209        1.73533
H          2.84565        0.65549        2.21683
H          1.95808        1.98683        1.40862
H         -2.65689        3.38888        0.48882
H         -1.90739        3.45872       -1.09224
H         -3.69904        1.80473       -1.16967
H         -2.13779        0.96158       -1.33263
H         -3.74758        1.09682        1.14203
H         -3.41675       -0.25269        0.17352
H         -0.75242        2.11461        1.26394
H         -0.06979        2.16039       -0.22631
C         -2.02227        2.82463       -0.20762
C         -2.76097        1.56175       -0.66412
N         -0.72099        2.63422        0.39485
N         -3.08427        0.67464        0.49502
