37
2msa1ma1eda_310.log	Energy: -1013358.9839886
S          1.39309        1.82654        0.19484
O          0.99143        2.25615        1.53577
O          0.23779        1.28914       -0.63254
O          2.52256        0.87072        0.14668
C          1.91300        3.28525       -0.69526
H          1.08912        3.99918       -0.68737
H          2.78085        3.69782       -0.17987
H          2.16717        3.00037       -1.71633
S         -2.85535       -0.20947       -0.27698
O         -3.00917       -0.94061        0.97550
O         -2.18937       -0.91838       -1.37630
O         -2.19335        1.18781       -0.04573
H         -1.16482        1.22629       -0.21357
C         -4.46464        0.30436       -0.82783
H         -5.05160       -0.60120       -0.98337
H         -4.90975        0.92399       -0.04976
H         -4.34985        0.85996       -1.75779
N          3.15692       -1.50083       -1.41658
H          3.47085       -1.52889       -2.38086
C          4.03028       -2.30932       -0.56169
H          5.08930       -2.03030       -0.62368
H          3.71574       -2.18718        0.47802
H          3.93442       -3.36682       -0.82403
H          3.17246       -0.52700       -1.10314
H         -0.80597       -2.77158        0.51890
H          0.82787       -3.44250        0.28157
H          0.56263       -2.54607        2.59687
H          1.74821       -1.57647        1.70804
H         -1.02172       -0.73909        2.20927
H          0.39103        0.13912        2.38499
H         -0.26349       -1.69102       -1.37314
H          0.34077       -0.61622       -0.31519
C          0.25856       -2.52918        0.47196
C          0.68523       -1.83469        1.76695
N          0.46035       -1.58950       -0.65943
N         -0.07112       -0.60944        1.88417
H          1.43623       -1.65418       -1.06437
