42
2msa2eda_366.log	Energy: -1072752.9503033
S          0.61823        1.95655        0.46331
O          1.38124        1.86265       -0.81524
O          1.25337        1.21747        1.57123
O         -0.81268        1.57848        0.27094
C          0.61414        3.68584        0.89273
H          0.05226        3.80428        1.81922
H          1.64958        3.99956        1.02622
H          0.14573        4.23838        0.07839
S          3.32619       -1.13138       -0.64018
O          4.34369       -1.94900       -1.26231
O          1.98476       -1.71132       -0.47705
O          3.22746        0.20537       -1.46379
H          2.46907        0.81400       -1.17058
C          3.87594       -0.59586        0.96383
H          3.97227       -1.48909        1.58252
H          4.84360       -0.11017        0.83752
H          3.12691        0.08895        1.37064
H         -0.26700       -2.46565        1.83670
H         -0.16549       -0.71944        2.19858
H         -2.31607       -1.76183        3.09394
H         -2.61572       -0.50033        1.90269
H         -3.11235       -3.32061        1.57510
H         -3.76669       -2.03147        0.74624
H          0.31401       -1.37981       -0.15029
H         -1.34466       -1.76135       -0.26332
C         -0.72804       -1.48964        1.66698
C         -2.21162       -1.51067        2.03212
N         -0.63573       -1.19417        0.21739
N         -2.91312       -2.42858        1.14219
H         -0.84578       -0.18753        0.06675
H         -5.47343        0.41240       -2.09725
H         -5.88475        0.55879       -0.38382
H         -4.05722        2.07167       -0.97214
H         -3.51246        0.87121        0.20100
H         -2.96685        0.71644       -2.67414
H         -1.90507        1.03673       -1.47289
H         -5.70004       -1.76175       -1.08355
H         -4.11760       -1.52232       -1.44026
C         -5.11205        0.20706       -1.07523
C         -3.83535        1.00230       -0.83703
N         -4.87937       -1.21803       -0.83841
N         -2.75376        0.52264       -1.69947
