28
2msa1dma_51.log	Energy: -918453.3704723
S          2.17507       -0.33779        0.05282
O          1.37143       -0.67712        1.23485
O          2.29869        1.07054       -0.27997
O          1.65403       -1.17529       -1.18315
H          0.65198       -1.13889       -1.22049
C          3.78485       -1.05588        0.23047
H          4.26482       -0.54810        1.06748
H          3.66677       -2.11979        0.43202
H          4.33514       -0.88394       -0.69436
S         -1.94433       -1.21403       -0.04861
O         -2.85311       -2.31459       -0.26262
O         -0.93587       -0.91568       -1.08338
O         -1.18426       -1.47603        1.32201
H         -0.26410       -1.10644        1.31199
C         -2.83709        0.28135        0.26402
H         -3.42004        0.49353       -0.63361
H         -3.49276        0.10221        1.11636
H         -2.09604        1.07278        0.45331
N         -0.48344        2.47209        0.14753
C         -0.70536        3.70830        0.88092
C         -0.68170        2.62406       -1.28685
H          0.46325        2.14126        0.30777
H         -1.75814        4.00138        0.79306
H         -0.48820        3.55252        1.94096
H         -0.09237        4.55065        0.51783
H         -1.73122        2.87382       -1.48533
H         -0.05689        3.41439       -1.73396
H         -0.46163        1.67753       -1.78646
