30
2msa1eda_28.log	Energy: -953206.2786180
S          1.99375        1.27571        0.12133
O          2.63670        0.14483        0.79901
O          1.20212        2.18903        0.96127
O          1.13333        0.79756       -1.04964
C          3.28620        2.23331       -0.64834
H          3.93485        2.60666        0.14476
H          3.84130        1.58063       -1.32192
H          2.82981        3.05987       -1.19268
S         -0.19281       -2.30339        0.01481
O         -0.91671       -3.48755       -0.39592
O         -0.92303       -1.29342        0.80130
O          0.37425       -1.62719       -1.29259
H          0.75429       -0.68876       -1.14829
C          1.25656       -2.75158        0.93431
H          0.91419       -3.21973        1.85784
H          1.82733       -3.45613        0.32939
H          1.82668       -1.83959        1.13150
H         -2.59740        1.77349       -1.67404
H         -2.37337        0.02933       -1.41262
H         -4.65927        0.74213       -0.68379
H         -3.70023        0.13970        0.66968
H         -4.33219        2.94671        0.14216
H         -4.41502        2.11443        1.54871
H         -0.47662        1.37024       -0.58532
H         -1.53574        2.08772        0.52677
C         -2.53907        0.98741       -0.91655
C         -3.79147        0.96082       -0.04828
N         -1.36785        1.26539       -0.05792
N         -3.88828        2.21833        0.69046
H         -1.18732        0.44409        0.54749
