28
2msa1dma_62.log	Energy: -918449.8812373
S          0.80887        1.06739        0.00861
O          1.27492        1.04287        1.37875
O         -0.45277        1.77269       -0.27740
O          0.67607       -0.41673       -0.55788
H         -0.26934       -0.72742       -0.50458
C          2.07535        1.69258       -1.05437
H          2.29174        2.70705       -0.71736
H          2.93907        1.02664       -0.92485
H          1.69854        1.68841       -2.07660
S         -3.03615       -0.52153        0.16023
O         -3.26244       -0.80963        1.55879
O         -1.87301       -1.14089       -0.49644
O         -2.98142        1.04109       -0.10153
H         -2.03526        1.36156       -0.11737
C         -4.48239       -0.93364       -0.77988
H         -4.64583       -2.00380       -0.64957
H         -5.32044       -0.36621       -0.37540
H         -4.30191       -0.68803       -1.82544
N          3.83540       -0.84591       -0.05194
C          4.41652       -0.58062        1.25703
C          4.66624       -1.70897       -0.87694
H          2.92006       -1.26947        0.06668
H          5.34505       -0.01267        1.13218
H          3.72210        0.02178        1.84730
H          4.65763       -1.49791        1.82077
H          5.61125       -1.20071       -1.09742
H          4.90833       -2.67355       -0.39882
H          4.16261       -1.90959       -1.82660
