37
2msa1ma1eda_520.log	Energy: -1013350.4863620
S         -0.55235        1.67147        0.30028
O          0.02957        1.01675       -0.91079
O         -0.62830        0.76369        1.46123
O         -1.88887        2.27343       -0.01659
H         -2.99355        1.23304        0.36183
C          0.51694        3.02820        0.71275
H          1.52796        2.62598        0.84823
H          0.49422        3.73610       -0.11660
H          0.13526        3.48931        1.62396
S          1.52278       -2.10449        0.05277
O          2.60700       -3.03094       -0.19977
O          0.14978       -2.51813       -0.23122
O          1.84984       -0.78883       -0.77021
H          1.07768       -0.13043       -0.80295
C          1.59802       -1.55207        1.74246
H          1.39081       -2.42008        2.37009
H          2.60409       -1.17624        1.93019
H          0.84637       -0.77070        1.88099
N          3.47258        1.69465        0.02597
H          4.41537        1.82035        0.37805
C          3.31507        2.34871       -1.27377
H          4.02177        2.00759       -2.04320
H          2.30130        2.16417       -1.64053
H          3.43553        3.43026       -1.15403
H          3.31683        0.69642       -0.08136
H         -4.90060       -0.66619       -0.89394
H         -3.90093        0.60472       -1.65078
H         -2.97027       -1.76000       -1.99123
H         -1.84362       -0.66653       -1.18765
H         -3.27824       -2.85811        0.05493
H         -1.75424       -2.29401        0.29858
H         -4.57320        0.81640        0.86007
H         -3.33008       -0.31316        1.03519
C         -3.92382       -0.17496       -0.88815
C         -2.79438       -1.19501       -1.06891
N         -3.72025        0.45027        0.44685
N         -2.71982       -2.01601        0.13629
