40
2msa1dma1eda_321.log	Energy: -1038019.1469658
S         -0.42618       -2.08382       -0.06194
O         -1.61741       -2.85101        0.33012
O          0.47710       -1.77903        1.09067
O         -0.78722       -0.83574       -0.81056
H         -2.17528       -0.24306       -0.22170
C          0.54272       -3.05395       -1.19499
H          0.85029       -3.96331       -0.67799
H         -0.07800       -3.29148       -2.05908
H          1.40431       -2.44828       -1.48097
S          2.92026        0.50255        0.00963
O          3.05941        1.93309       -0.20927
O          2.55608       -0.35793       -1.11014
O          1.90331        0.30103        1.19575
H          1.33617       -0.55054        1.10136
C          4.44371       -0.10649        0.70488
H          5.22119        0.02820       -0.04795
H          4.66964        0.47112        1.60098
H          4.31426       -1.16278        0.94134
N         -3.08750        0.10635        0.17993
C         -3.06636       -0.12339        1.63915
C         -4.17704       -0.60330       -0.51682
H         -3.09600        1.14464       -0.03436
H         -2.92799       -1.19008        1.82416
H         -2.22622        0.42462        2.06788
H         -4.00147        0.22933        2.07866
H         -4.03889       -1.67610       -0.37042
H         -5.14167       -0.28386       -0.11731
H         -4.12033       -0.37202       -1.58105
H         -1.24848        4.30809       -0.04347
H         -1.89494        3.41060        1.34300
H          0.46730        2.75423        0.73393
H         -0.64463        1.40450        0.70895
H          0.79192        2.47013       -1.47041
H          0.00007        1.04939       -1.34016
H         -3.41829        3.50144       -0.60319
H         -2.28965        2.64902       -1.44420
C         -1.57012        3.31533        0.30075
C         -0.39428        2.34109        0.19860
N         -2.68670        2.80356       -0.51410
N         -0.09160        2.05257       -1.20196
