34
2msa1a1eda_232.log	Energy: -988695.2128884
S         -2.63035       -0.89873        0.25049
O         -3.57758        0.19295        0.53748
O         -1.64812       -1.16381        1.32330
O         -1.94246       -0.70905       -1.07848
H         -1.36268        0.74499       -1.29425
C         -3.59226       -2.39083        0.05076
H         -4.09528       -2.58959        0.99751
H         -4.32008       -2.22872       -0.74444
H         -2.91569       -3.20681       -0.20403
S          2.09689       -0.37068       -0.40350
O          1.45256        0.38316       -1.46947
O          2.37588        0.31757        0.86264
O          3.46095       -0.93598       -0.96930
H          4.20036       -0.86936       -0.25451
C          1.15335       -1.83008       -0.06584
H          0.20943       -1.52459        0.40074
H          0.96716       -2.33354       -1.01436
H          1.73654       -2.45594        0.61029
N          5.23204       -0.62360        0.95439
H          6.03704       -0.06012        0.70079
H          5.56342       -1.43966        1.45822
H          4.64092       -0.07643        1.57727
H         -1.66584        3.63113       -0.60820
H         -2.71216        2.23384       -0.16865
H         -1.33601        2.92982        1.78166
H         -0.89909        1.31725        1.24483
H          0.73036        3.70282        1.04109
H          1.19784        2.11611        1.07520
H         -1.31512        2.08927       -2.31417
H         -0.03202        1.80730       -1.28680
C         -1.68585        2.58132       -0.30334
C         -0.86018        2.37552        0.96449
N         -1.05929        1.76923       -1.38386
N          0.51955        2.77274        0.70436
