34
2msa1a1eda_312.log	Energy: -988690.1453792
S         -2.40903       -0.84526       -0.13912
O         -3.04195        0.48800       -0.05870
O         -1.83428       -1.33424        1.10723
O         -1.40425       -0.90008       -1.31933
H         -0.61147       -0.20387       -1.28090
C         -3.62616       -1.99133       -0.73301
H         -4.02952       -1.61162       -1.67103
H         -3.14126       -2.95702       -0.87300
H         -4.40241       -2.05389        0.02991
S          0.86902        1.65449       -0.28585
O          0.46147        0.73054       -1.39120
O          0.71651        1.01944        1.05276
O          0.15546        2.96017       -0.34644
H         -1.18751        2.86842        0.82550
C          2.59238        1.96405       -0.55850
H          2.68545        2.47402       -1.51790
H          2.94828        2.59979        0.25273
H          3.10337        0.99351       -0.58162
N         -1.66402        2.26243        1.53105
H         -2.09919        2.78292        2.28555
H         -0.88788        1.65605        1.85204
H         -2.34003        1.65135        1.02439
H          3.59821       -3.15133        0.00243
H          4.65384       -1.86673        0.61931
H          2.83232       -2.28268        2.20443
H          2.67171       -0.66490        1.50599
H          0.92360       -2.91520        1.02088
H          0.59373       -1.30735        1.08064
H          3.97847       -1.54652       -1.74369
H          2.43870       -1.33041       -1.21308
C          3.65264       -2.07096        0.22093
C          2.60405       -1.73357        1.27848
N          3.42090       -1.23657       -0.95555
N          1.26463       -1.99758        0.76377
