30
2msa1eda_106.log	Energy: -953195.0448054
S         -1.35055        1.61600        0.08577
O         -2.30699        2.36063        0.90161
O         -1.92275        0.86766       -1.06006
O         -0.47862        0.68303        0.90844
C         -0.19856        2.79207       -0.61062
H          0.55115        2.24314       -1.18230
H         -0.76143        3.46763       -1.25550
H          0.25869        3.34746        0.20955
S          2.67228       -0.40831       -0.10584
O          2.06716       -1.68752        0.23672
O          2.26499        0.27055       -1.32438
O          4.27481       -0.65064       -0.20617
H          4.55271       -0.44709       -1.11126
C          2.58781        0.67187        1.29244
H          3.12598        1.58718        1.04708
H          1.51919        0.86178        1.44920
H          3.03779        0.16110        2.14374
H         -1.82077       -3.51945        0.23809
H         -1.48976       -2.52349        1.68420
H         -3.91816       -2.46669        0.91564
H         -3.16359       -0.87228        0.99329
H         -4.34473       -1.94814       -1.23856
H         -3.29889       -0.66503       -1.22693
H          0.13100       -2.16480       -0.16840
H         -1.15892       -1.57426       -1.07431
C         -1.79913       -2.50232        0.63692
C         -3.16036       -1.82709        0.45384
N         -0.79266       -1.72898       -0.12794
N         -3.41920       -1.64333       -0.97074
H         -0.65229       -0.76072        0.30364
