32
2msa1a1dma_156.log	Energy: -953953.8689641
S          1.00867        0.54480       -0.60405
O          2.13155        0.74430       -1.51046
O         -0.33923        0.70521       -1.28668
O          1.01510        1.44540        0.59783
H         -0.29494        2.23146        0.66625
C          1.06517       -1.11806        0.01835
H          0.99357       -1.79374       -0.83568
H          2.03237       -1.23893        0.52302
H          0.22893       -1.26672        0.70407
S         -2.96184       -0.58425        0.25130
O         -3.26500        0.84741        0.45062
O         -2.20732       -1.23319        1.31231
O         -2.28813       -0.79105       -1.14064
H         -1.41532       -0.19544       -1.23089
C         -4.49870       -1.43057       -0.00787
H         -5.02062       -0.95461       -0.83712
H         -4.27822       -2.47526       -0.22588
H         -5.06768       -1.34128        0.91783
N         -1.24374        2.74224        0.55250
H         -1.24577        3.15535       -0.37791
H         -1.37521        3.46027        1.25908
H         -2.01220        2.03969        0.59066
N          4.26645       -1.10186        0.86636
C          4.50570        0.29384        1.21156
C          4.67170       -1.41524       -0.49806
H          4.75775       -1.70455        1.51738
H          3.88700        0.93130        0.57353
H          4.21329        0.47182        2.24987
H          5.55875        0.59951        1.08236
H          4.06358       -0.82483       -1.19050
H          5.73397       -1.19440       -0.70130
H          4.49328       -2.47561       -0.70052
