40
2msa1dma1eda_560.log	Energy: -1038004.4577472
S         -1.77091        1.59610        0.33298
O         -1.40942        0.65446        1.39576
O         -2.34444        1.04842       -0.88646
O         -0.53654        2.52102        0.00526
H          0.30873        1.95264       -0.12226
C         -2.87832        2.81814        0.99402
H         -3.80539        2.30040        1.24192
H         -2.42605        3.25557        1.88323
H         -3.05265        3.57250        0.22711
S          2.06622        0.23212       -1.30141
O          3.21110        0.87856       -1.92995
O          1.47800        1.02199       -0.15571
O          2.35151       -1.15343       -0.78008
H          2.45548       -1.14217        0.75153
C          0.76987        0.04880       -2.50568
H          0.49131        1.04631       -2.84811
H          1.17425       -0.53780       -3.33126
H         -0.07396       -0.46473       -2.03716
N          2.58118       -1.06245        1.82236
C          1.25058       -0.92383        2.46548
C          3.48801        0.08531        2.07490
H          3.02694       -1.92558        2.12983
H          0.74535       -0.06263        2.02676
H          0.66583       -1.82099        2.25956
H          1.37830       -0.79140        3.54144
H          3.00993        0.97478        1.66404
H          3.65874        0.19066        3.14764
H          4.42860       -0.08997        1.55219
H         -3.03284       -1.68073        0.92944
H         -3.64356       -3.29794        0.53551
H         -1.30694       -3.42259        1.15164
H         -1.49638       -3.84615       -0.56379
H         -0.66277       -1.17351        0.33971
H          0.30607       -2.27711       -0.42860
H         -4.34120       -1.70169       -1.12233
H         -2.79025       -1.34097       -1.46707
C         -2.98401       -2.49547        0.18521
C         -1.55281       -3.01944        0.15225
N         -3.40352       -2.08717       -1.14981
N         -0.64968       -1.96720       -0.29452
