42
2msa2eda_102.log	Energy: -1072766.3159287
S          2.78309       -0.13172       -0.54179
O          2.82365       -1.56559       -0.19670
O          3.07213        0.80273        0.55500
O          1.46274        0.20364       -1.21440
C          4.01570        0.13366       -1.80499
H          4.98837       -0.09623       -1.36925
H          3.80104       -0.52946       -2.64285
H          3.97226        1.17789       -2.11522
S         -3.09148       -0.03446       -0.42987
O         -2.75621       -1.37399       -0.99347
O         -2.60858        1.08298       -1.29403
O         -2.65260        0.12164        0.97311
C         -4.87126        0.06092       -0.45850
H         -5.26252       -0.74659        0.16043
H         -5.16581        1.03115       -0.05836
H         -5.20179       -0.04891       -1.49130
H         -1.22380        2.59394        1.43374
H         -0.17674        1.17900        1.48718
H          0.88356        3.14791        2.65648
H          1.84133        2.57617        1.28353
H          0.19841        5.00368        1.34752
H          1.73583        4.81003        0.82337
H         -1.18427        1.79907       -0.74978
H         -0.08317        3.10578       -0.70264
C         -0.25873        2.19804        1.10908
C          0.90619        3.07068        1.56201
N         -0.26880        2.15199       -0.37420
N          0.82845        4.36370        0.87578
H          0.48367        1.51746       -0.72479
H          0.83939       -1.33863        1.36001
H         -0.94616       -1.34518        1.46300
H          0.07240       -3.21732        2.72947
H         -0.92320       -3.84210        1.42602
H          0.91993       -4.65363        0.33369
H          1.96528       -3.53631        0.98426
H          0.34397       -1.05249       -0.79294
H          0.35259       -2.68966       -0.76559
C         -0.06954       -1.88048        1.09035
C          0.00722       -3.30476        1.63891
N         -0.15182       -1.88147       -0.39803
N          1.12735       -4.08681        1.14390
H         -1.14926       -1.85815       -0.71876
