37
2msa1ma1eda_487.log	Energy: -1013350.1400709
S          1.86403       -1.36033       -0.58679
O          2.04129       -1.90889        0.77602
O          2.81526       -0.28433       -0.93230
O          0.44205       -0.93263       -0.83115
C          2.15085       -2.70233       -1.72946
H          3.17504       -3.04849       -1.58814
H          1.44235       -3.50097       -1.50868
H          2.00666       -2.32478       -2.74180
S         -3.00352       -0.46542        0.30413
O         -2.30623        0.76464        0.64635
O         -3.53794       -0.64068       -1.03464
O         -4.25764       -0.59186        1.33390
H         -5.06404       -0.68570        0.80670
C         -2.01621       -1.84767        0.79653
H         -1.08351       -1.77679        0.22248
H         -1.81922       -1.75458        1.86471
H         -2.56950       -2.75917        0.57199
N          2.49486        0.71350        2.24657
H          2.38375        0.78817        3.25270
C          3.79807        1.24528        1.82581
H          4.64440        0.78270        2.34831
H          3.91136        1.05504        0.75625
H          3.83106        2.32491        2.00157
H          2.43881       -0.27957        2.00216
H          1.30517        3.38485       -0.12193
H          1.94330        1.95743       -1.00471
H          0.38555        3.35530       -2.40185
H         -0.17511        1.69318       -2.19630
H         -1.70650        3.82304       -1.70439
H         -1.89045        2.45285       -0.83012
H          1.23572        1.33029        1.21492
H         -0.34519        1.89398        0.84350
C          1.04905        2.43565       -0.59852
C         -0.01218        2.64462       -1.67169
N          0.52109        1.52689        0.44690
N         -1.23324        3.18745       -1.07559
H          0.31150        0.60192        0.00871
