42
2msa2eda_521.log	Energy: -1072747.2447425
S          2.98065       -0.06478       -0.09827
O          4.03472        0.90074       -0.38091
O          1.92420       -0.06999       -1.19397
O          2.31246        0.10105        1.22690
H          0.83766        0.71577        1.23676
C          3.66308       -1.70625       -0.09433
H          4.11623       -1.88214       -1.07014
H          4.41558       -1.74795        0.69345
H          2.84898       -2.40606        0.10195
S         -0.66501       -2.03905        0.16598
O         -1.27354       -1.39809        1.33834
O          0.49761       -2.88918        0.37635
O         -0.33962       -0.91919       -0.88994
H          0.69748       -0.65832       -1.00000
C         -1.93338       -2.93870       -0.68779
H         -2.26996       -3.72846       -0.01462
H         -2.74218       -2.23585       -0.90626
H         -1.49909       -3.36065       -1.59368
H         -0.92919        3.12703        1.18705
H          0.47279        2.88666        2.26749
H          0.99491        4.25323        0.20156
H          2.01417        2.82568        0.37336
H          0.57314        3.41169       -1.83663
H          1.06217        1.89664       -1.45410
H         -0.73260        0.77374        1.83734
H         -0.48500        0.96765        0.23262
C          0.05983        2.67122        1.27977
C          0.99030        3.16023        0.16787
N         -0.10315        1.20282        1.15834
N          0.50813        2.68914       -1.13110
H         -2.77039        1.56251        0.91480
H         -3.63390        2.77022       -0.04127
H         -5.18185        1.14613        0.83918
H         -5.11429        0.98784       -0.93029
H         -3.62540       -0.76553        0.90556
H         -4.97665       -1.17365        0.07246
H         -1.67270        2.02841       -1.28379
H         -2.28503        0.49079       -1.31889
C         -3.31182        1.72254       -0.04228
C         -4.54857        0.83360       -0.00619
N         -2.52325        1.47245       -1.23039
N         -4.15722       -0.57622        0.05829
