41
2msa1dma1tma_36.log	Energy: -1027947.3477371
S          1.92114        0.81295       -0.94320
O          2.23368        2.21491       -1.23996
O          1.08488        0.62959        0.27845
O          3.13388       -0.07944       -0.84740
H          2.89773       -1.10363        0.24602
C          0.97715        0.16610       -2.31016
H          0.06405        0.75338       -2.41139
H          1.59365        0.24263       -3.20637
H          0.70103       -0.86731       -2.09309
S         -1.93779       -1.28445       -0.42864
O         -0.99809       -2.22996       -1.05549
O         -2.24960       -0.08337       -1.24384
O         -1.54089       -0.89015        0.96140
H         -1.08951        0.92924        0.66630
C         -3.48493       -2.16826       -0.24748
H         -3.82846       -2.45562       -1.24174
H         -3.30771       -3.05240        0.36561
H         -4.20979       -1.50853        0.23116
N          2.73621       -1.80244        1.06149
C          1.42070       -2.47177        0.88283
C          2.84079       -1.04657        2.32910
H          3.48606       -2.48949        1.00297
H          0.63315       -1.72263        0.97552
H          1.36666       -2.89982       -0.11732
H          1.30473       -3.25023        1.64017
H          2.08213       -0.26475        2.29346
H          2.67167       -1.71612        3.17489
H          3.83010       -0.59228        2.39280
N         -1.38471        1.91122        0.86257
C         -2.83497        1.85214        1.16878
H         -3.34532        1.47724        0.28195
H         -2.98501        1.15491        1.99237
H         -3.18357        2.85320        1.43326
C         -0.59103        2.37065        2.02641
H         -0.79793        1.70686        2.86696
H          0.46207        2.30996        1.75518
H         -0.87920        3.39518        2.27290
C         -1.12322        2.73473       -0.34638
H         -0.04755        2.79360       -0.51428
H         -1.61143        2.24242       -1.18749
H         -1.53946        3.73189       -0.18271
