26
2msa2a_35.log	Energy: -904641.7015427
S         -2.17329        0.15126       -0.13958
O         -1.15282       -0.64729       -0.90846
O         -1.77628        1.54115        0.08820
O         -2.55330       -0.60400        1.09419
H         -1.41628       -1.70185        1.36915
C         -3.63115        0.17097       -1.16353
H         -3.92713       -0.85828       -1.36520
H         -4.41392        0.69992       -0.61932
H         -3.38533        0.69285       -2.08849
S          2.23825       -0.36837       -0.25622
O          3.05811       -1.43915       -0.79401
O          1.49691       -0.66935        0.98835
O          1.22600        0.14599       -1.34296
H          0.25901       -0.12448       -1.15448
C          3.20693        1.08153        0.02958
H          3.96008        0.81455        0.77199
H          3.67839        1.35221       -0.91569
H          2.52574        1.86462        0.39201
N         -0.57464       -2.35585        1.34162
H         -0.66447       -2.93636        0.51041
H         -0.50449       -2.93266        2.17485
H          0.27975       -1.75472        1.22422
N          0.77430        3.02322        1.01595
H          0.68495        3.13915        2.02032
H         -0.02668        2.46979        0.71018
H          0.66996        3.94368        0.60115
