34
2msa1a1eda_216.log	Energy: -988700.7502202
S         -0.81507       -1.90056        0.28004
O         -1.83299       -2.91124        0.48747
O          0.57630       -2.53300        0.65734
O         -0.97953       -0.62535        0.99843
H         -0.07792        0.64702        2.03828
C         -0.66442       -1.52702       -1.44901
H         -0.51202       -2.46689       -1.97934
H         -1.59803       -1.03705       -1.73753
H          0.17498       -0.83925       -1.57856
S          2.54389        0.46652       -0.26305
O          2.75739        1.19657        1.01916
O          1.37534        0.97068       -1.01403
O          2.51189       -1.01456       -0.07682
H          1.34407       -1.90691        0.42610
C          3.99949        0.77594       -1.24206
H          4.08339        1.85252       -1.39061
H          4.86268        0.39129       -0.69916
H          3.88215        0.26141       -2.19583
N          0.27643        1.61239        2.00081
H          1.28617        1.56172        1.70785
H          0.16674        2.08263        2.89316
H         -0.29705        2.06583        1.21895
H         -2.80876        1.48379        1.22182
H         -3.07811        3.14676        0.69925
H         -4.80121        1.77902       -0.24545
H         -3.74364        2.28133       -1.57263
H         -3.58738       -0.34844       -0.26946
H         -4.14814       -0.04457       -1.77442
H         -1.11766        1.33971       -0.54037
H         -1.25720        2.94508       -0.79966
C         -2.77878        2.15223        0.35157
C         -3.79416        1.65290       -0.67531
N         -1.38998        2.21928       -0.10261
N         -3.49706        0.27699       -1.06647
