40
2msa1dma1eda_151.log	Energy: -1038021.7297132
S         -1.81449       -1.28488        0.89882
O         -3.14151       -0.70477        0.69429
O         -0.90350       -0.50323        1.77054
O         -1.14123       -1.57108       -0.43285
C         -2.01172       -2.87508        1.67834
H         -2.48808       -2.71579        2.64599
H         -2.64093       -3.49079        1.03545
H         -1.02500       -3.32194        1.80361
S          2.23755       -0.91947       -0.57719
O          2.62687       -0.52203        0.77372
O          1.71633        0.15409       -1.43267
O          1.25141       -2.12310       -0.55822
H          0.22031       -1.85167       -0.47839
C          3.63406       -1.67137       -1.37624
H          4.41497       -0.91254       -1.43193
H          3.95935       -2.51687       -0.77047
H          3.33072       -1.99302       -2.37195
N         -1.83382        1.17224       -1.75861
C         -1.17854        1.40688       -3.04246
C         -3.19451        1.69764       -1.68897
H         -1.85318        0.16902       -1.57402
H         -1.05635        2.48406       -3.20000
H         -0.18861        0.94396       -3.02889
H         -1.75170        1.00226       -3.88991
H         -3.16681        2.79206       -1.73195
H         -3.82608        1.33997       -2.51592
H         -3.64600        1.38419       -0.74550
H          0.19307        3.74948        0.43309
H         -1.00846        3.02631        1.53770
H          1.09426        3.72769        2.71325
H          0.76458        1.99994        2.87840
H          3.11191        2.94500        2.07173
H          2.55055        1.53525        1.45516
H         -0.78928        1.64051       -0.49994
H          0.85990        1.52160       -0.20134
C         -0.01836        2.90361        1.09137
C          1.06066        2.78189        2.16424
N         -0.03866        1.67729        0.27007
N          2.35645        2.53074        1.54174
H         -0.23228        0.84874        0.87124
