44
2msa2tma_04.log	Energy: -1052610.7451114
S         -1.46142       -1.66036       -0.79697
O         -2.64307       -2.52114       -0.90208
O         -0.73037       -1.77920        0.49395
O         -1.76724       -0.21222       -1.09442
H         -1.96842        0.62140        0.19490
C         -0.31427       -2.13293       -2.07967
H         -0.02593       -3.17130       -1.90827
H         -0.82594       -2.04000       -3.03813
H          0.54140       -1.45626       -2.02630
S          1.46161        1.66020       -0.79693
O          2.64286        2.52156       -0.90179
O          0.73103        1.77775        0.49442
O          1.76776        0.21246       -1.09564
H          1.96767       -0.62184        0.19545
C          0.31375        2.13362       -2.07872
H          0.02551        3.17189       -1.90655
H          0.82491        2.04123       -3.03750
H         -0.54189        1.45691       -2.02527
N         -2.40506        1.15281        1.01994
C         -1.66024        0.80007        2.25047
H         -1.67263       -0.28566        2.35276
H         -0.63498        1.14466        2.12296
H         -2.13781        1.28092        3.10865
C         -2.31319        2.59864        0.71337
H         -1.25507        2.85587        0.64211
H         -2.80894        2.78254       -0.24107
H         -2.80454        3.16961        1.50572
C         -3.80479        0.67017        1.06656
H         -4.28511        0.89343        0.11398
H         -3.79594       -0.41158        1.20687
H         -4.33263        1.16074        1.88826
N          2.40472       -1.15281        1.02015
C          2.31393       -2.59868        0.71327
H          1.25601       -2.85665        0.64186
H          2.80989       -2.78199       -0.24117
H          2.80566       -3.16939        1.50555
C          3.80410       -0.66906        1.06661
H          4.28430       -0.89147        0.11378
H          3.79437        0.41262        1.20740
H          4.33249       -1.15960        1.88796
C          1.65985       -0.80085        2.25089
H          1.67151        0.28486        2.35334
H          0.63482       -1.14617        2.12352
H          2.13798       -1.28153        3.10886
