32
2msa1a1dma_113.log	Energy: -953955.1530556
S          3.12631       -0.34951       -0.02362
O          2.35124       -1.54642       -0.41041
O          3.21516       -0.07592        1.39881
O          2.63279        0.89026       -0.83613
H          1.71387        1.27246       -0.54058
C          4.74601       -0.52368       -0.72721
H          5.20367       -1.39340       -0.25532
H          4.64248       -0.67128       -1.80150
H          5.31021        0.38131       -0.50376
S         -0.81330        1.14817        0.11904
O          0.42016        1.91346       -0.22160
O         -0.73145        0.48780        1.44906
O         -1.18746        0.17280       -0.94766
H         -0.72803       -1.54170       -0.34890
C         -2.11499        2.35245        0.21022
H         -1.87660        3.04252        1.01949
H         -2.15569        2.87440       -0.74599
H         -3.04928        1.81734        0.39681
N         -0.21376       -1.97111        0.44255
H         -0.55744       -2.89409        0.68727
H         -0.35917       -1.26882        1.19763
H          0.79858       -1.96914        0.18973
N         -4.12739       -0.42652       -0.27576
C         -5.20889       -0.97493       -1.07294
C         -3.79054       -1.24869        0.87028
H         -3.29727       -0.28712       -0.84554
H         -6.13542       -0.97644       -0.48780
H         -5.37206       -0.34910       -1.95418
H         -5.02675       -2.01123       -1.41267
H         -4.63868       -1.28589        1.56289
H         -3.54121       -2.29703        0.60620
H         -2.94449       -0.80476        1.40343
