40
2msa1dma1eda_189.log	Energy: -1038021.9150607
S         -0.80803        2.29973        0.17675
O         -0.59254        1.12931        1.10424
O         -2.09614        2.22847       -0.52258
O          0.37960        2.47575       -0.69911
C         -0.84945        3.72818        1.24314
H         -1.68392        3.61288        1.93503
H          0.09686        3.78450        1.78096
H         -0.98890        4.60796        0.61450
S         -2.15285       -1.69073       -0.36790
O         -2.55213       -3.06644       -0.15743
O         -1.13073       -1.41735       -1.38821
O         -1.66149       -1.13338        1.02544
H         -1.28942       -0.17076        0.98817
C         -3.56523       -0.68379       -0.74771
H         -3.94784       -1.02438       -1.71067
H         -4.30565       -0.83520        0.03782
H         -3.23697        0.35875       -0.79796
N          1.52539       -1.41599        1.41583
C          2.00229       -0.48854        2.43833
C          2.25833       -2.67574        1.40008
H          0.53497       -1.59959        1.56227
H          3.03020       -0.20128        2.19641
H          1.37372        0.40472        2.42328
H          1.98589       -0.92726        3.44767
H          3.30219       -2.47477        1.13830
H          2.24202       -3.19289        2.37147
H          1.83116       -3.34221        0.64570
H          2.59067       -1.31539       -2.20935
H          2.00626        0.15733       -3.00160
H          4.34666        0.49249       -2.48526
H          3.38605        1.53570       -1.43400
H          4.70486       -0.94597       -0.61565
H          4.84109        0.54625        0.03610
H          0.45723       -0.59005       -1.31856
H          1.58264       -0.56833       -0.10122
C          2.38664       -0.25055       -2.06165
C          3.64629        0.49170       -1.63728
N          1.33316       -0.12077       -1.03856
N          4.19625       -0.09080       -0.41631
H          1.08514        0.87780       -0.87995
