40
2msa1dma1eda_460.log	Energy: -1038010.7468166
S          1.22452       -0.60091       -0.47283
O          1.94736        0.51191       -1.10095
O         -0.03388       -0.94432       -1.22673
O          0.91519       -0.36914        0.97150
H         -0.05147        0.91328        1.24784
C          2.25560       -2.04587       -0.53088
H          2.42960       -2.27849       -1.58227
H          3.19869       -1.81076       -0.02328
H          1.72537       -2.86144       -0.03813
S         -3.12799       -0.80115        0.18847
O         -3.53992       -0.05468       -0.99812
O         -2.69032       -0.00479        1.33920
O         -2.06680       -1.88637       -0.17007
H         -1.18998       -1.48424       -0.59447
C         -4.46221       -1.85056        0.70946
H         -5.28068       -1.19464        1.00721
H         -4.75413       -2.47845       -0.13176
H         -4.12020       -2.45117        1.55172
N          5.06829       -0.66026        0.57811
C          4.54057        0.30929        1.52779
C          5.35710       -0.06850       -0.72178
H          5.90555       -1.08983        0.95581
H          3.58425        0.68705        1.15344
H          4.35654       -0.17760        2.48931
H          5.21065        1.17227        1.68991
H          4.42335        0.30059       -1.15786
H          6.06985        0.77318       -0.67155
H          5.76848       -0.83051       -1.39026
H         -0.20715        3.78891        0.57821
H          0.96866        2.54650        0.03670
H         -0.60162        3.12046       -1.80608
H         -0.81358        1.45091       -1.30455
H         -2.69680        3.61097       -0.92177
H         -2.95987        1.97718       -0.99041
H         -0.34262        2.22119        2.25984
H         -1.55709        1.69080        1.24707
C         -0.08345        2.75730        0.23962
C         -0.95706        2.48805       -0.98444
N         -0.53867        1.85093        1.33353
N         -2.35342        2.70612       -0.62765
