35
2msa1ma1dma_100.log	Energy: -978624.6009265
S          1.26065       -1.63159       -0.09914
O          1.30886       -0.63117        1.00228
O          2.38863       -1.54867       -1.03224
O         -0.06408       -1.57250       -0.81433
C          1.31577       -3.23194        0.68337
H          2.26974       -3.31893        1.20369
H          0.48508       -3.30209        1.38610
H          1.23236       -3.98959       -0.09592
S         -2.86136        0.19864        0.01403
O         -2.92180        0.53373       -1.40025
O         -2.17441        1.17328        0.88136
O         -2.27643       -1.22995        0.24482
H         -1.32348       -1.36815       -0.18515
C         -4.49699       -0.03395        0.66202
H         -5.01072        0.92325        0.56969
H         -4.99416       -0.79951        0.06711
H         -4.41577       -0.33277        1.70650
N          3.55292        1.27546       -0.49129
H          3.30329        0.34776       -0.83562
C          4.13809        1.15168        0.84504
H          5.08366        0.59191        0.87476
H          4.32132        2.14651        1.26637
H          3.42299        0.63427        1.48973
H          4.23648        1.65381       -1.13919
N          0.43406        1.81041        0.09309
C          1.01518        3.04602        0.65447
C          0.36710        1.79410       -1.38827
H          0.97529        0.97876        0.41669
H          0.40122        3.89838        0.35832
H          1.03415        2.96254        1.74154
H          2.02990        3.13924        0.26585
H         -0.30703        2.58464       -1.72059
H          1.37647        1.94269       -1.77074
H         -0.01785        0.82461       -1.70695
H         -0.52150        1.65547        0.46408
