43
2msa1eda1tma_61.log	Energy: -1062684.8804638
S          0.22781        2.02359       -0.91126
O         -1.15993        2.10520       -0.40001
O          0.40025        1.13784       -2.07391
O          1.17308        1.67183        0.21282
H          2.20569        0.54840        0.10140
C          0.68764        3.66961       -1.41672
H          0.00647        3.97675       -2.21058
H          0.59897        4.33065       -0.55466
H          1.71483        3.63844       -1.78054
S          2.27661       -1.61219       -0.17631
O          3.24943       -2.61125        0.20846
O          2.90363       -0.19610        0.10405
O          0.93978       -1.67678        0.43704
H         -0.32769       -0.51896        0.91782
C          2.05492       -1.63185       -1.93915
H          3.03887       -1.54113       -2.39934
H          1.59721       -2.58858       -2.19422
H          1.41122       -0.79061       -2.20917
H         -2.11790        0.15663        3.16909
H         -1.26678       -1.39951        2.96167
H         -0.04442        0.13476        4.48662
H          0.90936       -0.27561        3.05718
H          0.61682        2.20602        3.82865
H          0.54974        1.88650        2.22287
H         -1.98877       -0.58405        0.77326
H         -1.22501        0.87633        1.03956
C         -1.21949       -0.32357        2.77511
C          0.02856        0.28487        3.40532
N         -1.19809       -0.12044        1.31015
N          0.09318        1.71232        3.11705
N         -2.98176       -1.17255       -0.54841
C         -1.96238       -1.47255       -1.55662
H         -1.36736       -0.57746       -1.76062
H         -1.29352       -2.25244       -1.18072
H         -2.41698       -1.81540       -2.50068
C         -3.79134       -2.34795       -0.25064
H         -3.14760       -3.15874        0.10229
H         -4.51556       -2.11039        0.53381
H         -4.34312       -2.70347       -1.13723
C         -3.80663       -0.04019       -0.96903
H         -4.54479        0.18446       -0.19339
H         -3.16914        0.83666       -1.11154
H         -4.34213       -0.25309       -1.90907
