30
2msa1eda_155.log	Energy: -953184.1731286
S          1.54222       -1.69819        0.08565
O          1.62591       -3.14151        0.06336
O          0.71841       -1.07817        1.14043
O          1.04173       -1.13730       -1.31933
H          0.05821       -1.00387       -1.31727
C          3.15220       -0.97262        0.14043
H          3.61682       -1.33410        1.05901
H          3.70378       -1.32815       -0.73049
H          3.04736        0.12159        0.14857
S         -2.48610       -0.32193       -0.07253
O         -3.48069       -1.33071        0.21074
O         -1.55843       -0.55101       -1.18928
O         -1.63468        0.02262        1.22409
H         -0.75646       -0.46325        1.22336
C         -3.27926        1.24635       -0.32035
H         -3.92389        1.13993       -1.19337
H         -3.87042        1.47033        0.56769
H         -2.51189        2.00182       -0.48901
H          1.79167        3.88338       -0.87325
H          2.09703        2.37102       -1.74409
H         -0.26281        2.51603       -1.19466
H          0.48656        1.19370       -0.29533
H         -0.32553        3.75431        0.85475
H         -0.63438        2.22113        1.38085
H          3.68656        2.81460        0.11468
H          2.43506        2.58043        1.15063
C          1.82776        2.78610       -0.76651
C          0.44184        2.28092       -0.38133
N          2.79840        2.33875        0.23076
N          0.04604        2.81370        0.91988
