38
2msa2dma_114.log	Energy: -1003281.4289669
S          1.38097       -1.77834       -0.22585
O          0.76959       -2.46515        0.91914
O          2.26015       -0.63825        0.16389
O          0.37341       -1.34526       -1.25388
C          2.43466       -2.93562       -1.07595
H          2.87493       -2.43252       -1.93662
H          3.20620       -3.26022       -0.37765
H          1.81994       -3.77849       -1.39212
S         -2.61846        0.10532       -0.24941
O         -2.76840        1.12620       -1.27228
O         -1.85307        0.48167        0.95244
O         -2.07897       -1.23760       -0.83119
H         -1.04426       -1.27285       -0.97424
C         -4.22472       -0.43341        0.28408
H         -4.72477        0.43670        0.71022
H         -4.76506       -0.80026       -0.58826
H         -4.09859       -1.21791        1.02927
N          0.72799        0.85835        1.86475
C          0.63567       -0.01545        3.05696
C          1.08990        2.26354        2.14959
H          1.41032        0.42679        1.19737
H         -0.15127        0.35953        3.71295
H          0.41004       -1.02769        2.71849
H          1.59567       -0.00478        3.57530
H          0.32181        2.70624        2.78634
H          2.05246        2.28129        2.66423
H          1.15829        2.78377        1.18825
H         -0.18612        0.82410        1.37742
N          1.42604        2.87045       -1.03154
C          0.50680        2.07995       -1.84766
C          2.81840        2.49041       -1.24279
H          1.30905        3.85253       -1.26023
H          0.60316        1.02258       -1.58485
H         -0.52501        2.38290       -1.65663
H          0.70559        2.17013       -2.92898
H          2.95234        1.44965       -0.93154
H          3.13864        2.57439       -2.29541
H          3.47240        3.12129       -0.63206
