26
2msa2a_19.log	Energy: -904650.1272567
S          2.22507       -0.09705       -0.03027
O          2.03553        1.29777       -0.46265
O          1.95694       -1.12731       -1.02351
O          1.42222       -0.36168        1.28521
H          0.38569       -0.25837        1.12431
C          3.88145       -0.26115        0.58383
H          4.55054       -0.09921       -0.26166
H          4.03998        0.49130        1.35556
H          3.99900       -1.26820        0.98300
S         -1.92931       -0.81483       -0.00187
O         -3.24787       -0.97386        0.59728
O         -0.99359       -0.01543        0.89668
O         -1.91761       -0.21965       -1.36715
H         -1.05121        1.18778       -1.50741
C         -1.16817       -2.41931       -0.15817
H         -1.10632       -2.86553        0.83494
H         -1.80688       -3.01957       -0.80675
H         -0.17746       -2.29351       -0.59938
N         -0.53101        2.09392       -1.36845
H         -0.56303        2.66544       -2.20676
H          0.44712        1.86995       -1.11729
H         -0.99964        2.57161       -0.54826
N         -1.85618        2.84008        0.99070
H         -1.51761        3.50628        1.67692
H         -1.68314        1.89616        1.34526
H         -2.86342        2.95185        0.92520
