42
2msa2eda_197.log	Energy: -1072756.6646134
S         -2.30949       -1.20639        0.32582
O         -3.24429       -0.22170       -0.20583
O         -1.31561       -0.70909        1.28905
O         -1.61694       -2.01594       -0.80659
C         -3.22611       -2.50815        1.11186
H         -3.92143       -2.92277        0.38235
H         -2.52146       -3.26231        1.46022
H         -3.76392       -2.05812        1.94669
S          1.61073       -0.76055       -1.49646
O          1.87814       -1.76416       -0.45095
O          2.00622        0.61455       -1.11234
O          0.18568       -0.80705       -1.97995
H         -0.82269       -1.50351       -1.28225
C          2.58108       -1.18782       -2.92886
H          3.63351       -1.13086       -2.64994
H          2.31387       -2.20076       -3.23012
H          2.35218       -0.47419       -3.72025
H          2.24480        1.56836        2.96966
H          0.63984        1.01141        3.51448
H          2.36053       -0.65490        4.04350
H          1.22203       -1.31174        2.86287
H          3.83386       -1.42922        2.51907
H          2.86333       -1.18555        1.22263
H          0.56210        1.99109        1.27288
H          1.63111        0.82991        0.70786
C          1.46005        0.82407        2.81595
C          2.03000       -0.57734        3.00269
N          0.92843        1.00652        1.44712
N          3.16345       -0.78914        2.11302
H          0.14468        0.35524        1.27763
H         -0.18977        4.33584       -1.28638
H          0.99001        3.01748       -1.09386
H         -1.02945        2.25039       -2.30360
H         -0.78239        1.37336       -0.81448
H         -2.85725        3.34748       -1.30207
H         -2.92977        1.89601       -0.53529
H          0.46122        4.34302        0.98275
H         -1.02249        3.62557        0.93088
C          0.00241        3.37508       -0.78660
C         -1.05198        2.35582       -1.21125
N         -0.03844        3.51341        0.68003
N         -2.36066        2.72591       -0.67373
