34
2msa1a1eda_12.log	Energy: -988716.8714279
S          2.87656       -0.56560       -0.09750
O          2.85187       -1.09583        1.27793
O          3.16681        0.88051       -0.19896
O          1.59681       -0.91199       -0.82910
C          4.16475       -1.42459       -0.98103
H          5.10984       -1.20722       -0.48279
H          3.94893       -2.49246       -0.94836
H          4.17847       -1.06234       -2.00899
S         -3.02406       -0.51572       -0.15446
O         -2.69766       -0.83280       -1.55315
O         -2.37745        0.77389        0.27318
O         -2.71922       -1.60018        0.81797
C         -4.78312       -0.24863       -0.04371
H         -5.05163        0.55454       -0.72996
H         -5.27815       -1.17775       -0.32716
H         -5.02606        0.01834        0.98471
N         -0.06836       -1.19353        1.40572
H          0.43172       -1.43633        0.53361
H          0.06427       -0.15784        1.50607
H         -1.08276       -1.43788        1.32936
H          0.40925       -1.66496        2.16946
H          1.49020        2.40724       -1.04172
H         -0.05069        3.24077       -1.39161
H          0.63138        3.67405        0.89273
H         -0.88680        2.75492        0.86363
H          1.74380        1.51927        1.31158
H          0.64053        1.86395        2.47620
H         -0.40248        1.12405       -2.23052
H          0.50480        0.35596       -1.07440
C          0.42188        2.44200       -0.81617
C          0.18802        2.69380        0.66867
N         -0.17101        1.14295       -1.23945
N          0.74391        1.61929        1.49605
H         -1.06478        0.95963       -0.70612
