32
2msa2ma_134.log	Energy: -953961.0703758
S         -2.70631        0.20679        0.27306
O         -2.52421        1.26130        1.25537
O         -2.49396       -1.18117        0.66695
O         -1.84475        0.51967       -1.02087
H         -1.00718       -0.06166       -1.06949
C         -4.33835        0.36740       -0.42051
H         -5.04702        0.21961        0.39511
H         -4.43968        1.36906       -0.83784
H         -4.46622       -0.39420       -1.18900
S          1.11234       -1.34655       -0.14427
O          0.33272       -0.76469       -1.29245
O          1.05033       -0.49730        1.05771
O          2.51338       -1.63927       -0.56497
H          3.36271       -0.18406       -0.34617
C          0.33437       -2.89904        0.23119
H         -0.69643       -2.67691        0.51423
H          0.37550       -3.52512       -0.66021
H          0.87907       -3.35759        1.05665
N          1.40690        2.09464       -1.09241
H          1.45086        2.77985       -1.84087
C          0.61178        2.61605        0.03587
H         -0.39891        2.91450       -0.25737
H          0.52164        1.82957        0.78747
H          1.12576        3.47546        0.47598
H          0.94008        1.26805       -1.47203
N          3.64344        0.81499       -0.16953
H          4.49409        1.01863       -0.68867
C          3.80351        1.05887        1.28239
H          3.98136        2.12086        1.45597
H          2.87809        0.74258        1.76432
H          4.63810        0.47217        1.66740
H          2.82338        1.40995       -0.56990
