43
2msa1eda1tma_274.log	Energy: -1062665.3650699
S          1.20185        2.32357        0.26610
O          2.43295        2.48442       -0.49234
O          1.25649        1.61401        1.53791
O          0.07142        1.69135       -0.64179
H         -0.01057        0.65825       -0.52206
C          0.49513        3.93721        0.52424
H          1.20666        4.50226        1.12717
H          0.35573        4.41295       -0.44641
H         -0.45075        3.82260        1.05280
S         -0.79756       -1.54252        0.66096
O         -0.26351       -0.76912       -0.52040
O         -1.23751       -2.88282        0.27622
O         -1.88484       -0.72676        1.31804
H         -2.84401       -0.25314        0.27058
C          0.51303       -1.65241        1.84735
H          1.35157       -2.19458        1.39213
H          0.80974       -0.63402        2.10541
H          0.12153       -2.18385        2.71543
H          3.40130       -2.62293       -1.92018
H          1.75622       -2.57128       -1.25843
H          2.38442       -0.33129       -1.89320
H          2.27214       -0.43071       -0.13588
H          4.76639       -0.37168       -1.64927
H          4.22346        0.67861       -0.52306
H          3.36750       -3.84294        0.14332
H          4.11019       -2.41197        0.46920
C          2.79322       -2.27586       -1.06603
C          2.85921       -0.75688       -0.99710
N          3.22472       -2.84164        0.21215
N          4.23369       -0.30159       -0.78755
N         -3.54493        0.08136       -0.49178
C         -4.89837       -0.22377        0.01949
H         -4.97596       -1.29891        0.18356
H         -5.04389        0.29422        0.96805
H         -5.64902        0.10123       -0.70539
C         -3.32282        1.53424       -0.66922
H         -3.52502        2.03590        0.27808
H         -2.27983        1.69959       -0.94362
H         -3.99139        1.91489       -1.44576
C         -3.23380       -0.68176       -1.72696
H         -2.20234       -0.47322       -2.01109
H         -3.31991       -1.74720       -1.50942
H         -3.93076       -0.38977       -2.51647
