42
2msa2eda_26.log	Energy: -1072769.5565256
S          2.96177        0.58603       -0.43423
O          2.81045        0.16348        0.97248
O          2.60381        2.01381       -0.66490
O          2.24823       -0.32332       -1.38081
C          4.69222        0.46172       -0.84966
H          4.81621        0.75420       -1.89223
H          5.24701        1.13050       -0.19146
H          5.00452       -0.57193       -0.69902
S         -2.68487       -0.32068       -0.63587
O         -2.36797       -1.74202       -0.32913
O         -1.59432        0.28741       -1.45873
O         -3.02680        0.48548        0.55246
C         -4.13025       -0.34249       -1.68151
H         -4.94238       -0.81312       -1.12696
H         -4.38141        0.68856       -1.93148
H         -3.89525       -0.91082       -2.58148
H         -0.78217        0.98655        1.26132
H          0.81950        1.70741        1.56434
H         -1.12017        2.68854        2.92099
H         -0.23447        3.89967        1.98058
H         -2.71223        2.62483        1.03258
H         -2.55353        4.19930        1.52236
H         -0.54998        1.47416       -0.83956
H         -0.62429        3.07455       -0.44309
C         -0.18271        1.89381        1.17439
C         -0.89662        3.02958        1.90074
N         -0.07971        2.22002       -0.27858
N         -2.06677        3.41037        1.11566
H          0.92127        2.30080       -0.56617
H          1.54303       -1.86934        1.31600
H         -0.08869       -1.20141        1.42974
H          0.05505       -3.36169        2.69272
H         -1.10552       -3.43205        1.35704
H          1.56950       -4.63326        1.35875
H          0.13418       -5.33026        0.99233
H          1.01259       -1.33683       -0.85629
H          0.68952       -2.99525       -0.72803
C          0.49589       -2.04354        1.05842
C         -0.04082       -3.36234        1.59930
N          0.39159       -2.06286       -0.42192
N          0.66032       -4.46670        0.94042
H         -0.60429       -1.92379       -0.68165
