40
2msa1dma1eda_338.log	Energy: -1038017.3852016
S          1.10474        1.88121        0.36349
O          2.59613        1.87039        0.37590
O          0.48845        1.41997        1.61340
O          0.61315        1.10924       -0.83868
H         -0.20701       -0.16486       -0.78468
C          0.59245        3.56158        0.09216
H          0.95960        4.15740        0.92817
H          1.02108        3.90632       -0.84876
H         -0.50025        3.56366        0.05907
S         -0.47648       -2.07791        0.24809
O         -1.24325       -3.26196       -0.08079
O         -0.77720       -1.00744       -0.86910
O          0.98802       -2.22073        0.37412
H          2.28340       -1.18324       -0.06351
C         -1.08926       -1.34554        1.73965
H         -2.14020       -1.09733        1.55726
H         -0.97400       -2.09149        2.52734
H         -0.50083       -0.44770        1.94448
N          3.13717       -0.68148       -0.38447
C          3.13964       -0.68495       -1.86377
C          4.31971       -1.30709        0.23964
H          3.03231        0.31242       -0.05357
H          3.12620       -1.71536       -2.22198
H          2.24711       -0.15441       -2.19593
H          4.03314       -0.17125       -2.22162
H          4.37903       -2.35330       -0.06382
H          5.21812       -0.77415       -0.07495
H          4.21467       -1.24389        1.32257
H         -4.52992        1.91729        0.05483
H         -3.93374        2.13810       -1.58199
H         -4.94980       -0.01562       -1.52901
H         -3.19891       -0.27824       -1.60396
H         -4.85299       -0.58055        0.78785
H         -3.94429       -1.70853        0.03222
H         -2.28150        1.40586        0.72855
H         -1.73790        1.61491       -0.78645
C         -3.77316        1.56776       -0.65962
C         -4.00902        0.08544       -0.96344
N         -2.45834        1.91224       -0.13431
N         -3.99598       -0.72043        0.26108
