32
2msa2ma_155.log	Energy: -953960.7679350
S         -2.71223       -0.84146       -0.15986
O         -4.10077       -1.28065       -0.04605
O         -2.26800        0.07091        0.95683
O         -2.34703       -0.24555       -1.48164
H         -1.35627        1.26407       -1.25997
C         -1.67924       -2.29310        0.00608
H         -1.87434       -2.73879        0.98262
H         -1.95352       -2.98910       -0.78769
H         -0.63700       -1.98255       -0.08850
S          1.70005        0.33537        0.85516
O          1.38709        1.74972        0.56053
O          3.13410        0.11745        1.22064
O          1.30257       -0.57954       -0.26709
H          2.70337       -1.30846       -0.94117
C          0.72265       -0.14516        2.25990
H          0.97921       -1.17384        2.51499
H          0.96832        0.52777        3.08196
H         -0.33413       -0.07033        1.98138
N         -1.17986        1.98803       -0.53454
H         -1.63950        1.50146        0.27466
C         -1.80303        3.28022       -0.86226
H         -1.67447        3.96928       -0.02739
H         -1.33811        3.69914       -1.75511
H         -2.86545        3.11865       -1.04505
H         -0.17203        2.04359       -0.31156
N          3.75509       -1.30094       -0.91991
H          3.87840       -0.85604        0.02632
C          4.29673       -0.42638       -1.98483
H          5.37374       -0.32064       -1.85907
H          4.06919       -0.85294       -2.96110
H          3.81853        0.54780       -1.88548
H          4.13622       -2.24341       -0.94247
