32
2msa1a1dma_145.log	Energy: -953952.9553041
S         -1.58273       -0.14197        0.08141
O         -0.85734        0.77411       -0.80944
O         -2.31543       -1.23047       -0.60376
O         -2.53645        0.60515        1.00543
H         -3.86182        0.49518        0.53113
C         -0.39567       -0.88570        1.17858
H          0.32215       -1.43903        0.57117
H          0.11814       -0.09498        1.72654
H         -0.92831       -1.55107        1.85803
S          3.00461        0.39505        0.29121
O          2.58967        0.73171        1.64047
O          2.78212       -0.96869       -0.19747
O          4.55193        0.72518        0.13851
H          5.03910       -0.06176       -0.29872
C          2.25620        1.53982       -0.83853
H          1.17502        1.36874       -0.80405
H          2.50718        2.54828       -0.50912
H          2.64732        1.34326       -1.83674
N          5.60819       -1.44603       -0.95793
H          6.24633       -1.96297       -0.36218
H          6.00230       -1.41076       -1.89188
H          4.72334       -1.94984       -0.99362
N         -4.88619        0.36512        0.08704
C         -5.32744       -1.02174        0.35481
C         -4.78471        0.68340       -1.35623
H         -5.50806        1.02770        0.54631
H         -4.56030       -1.68617       -0.04633
H         -5.40334       -1.16489        1.43318
H         -6.29420       -1.20799       -0.11867
H         -4.06999       -0.01507       -1.79446
H         -5.76309        0.58931       -1.83268
H         -4.40187        1.69857       -1.46527
