44
2msa2tma_72.log	Energy: -1052595.4292619
S          1.81700       -1.74490        0.21677
O          1.87462       -0.95663        1.48830
O          3.07527       -2.42051       -0.10497
O          1.34158       -0.84018       -0.89438
H          2.27557        0.44351       -0.79646
C          0.53152       -2.95468        0.42767
H          0.84807       -3.63792        1.21605
H         -0.37592       -2.42163        0.71681
H          0.40447       -3.48507       -0.51620
S         -1.02935        1.05099        1.12150
O         -1.69592        2.17745        1.74497
O         -1.39575       -0.31148        1.49480
O          0.53930        1.23136        1.36897
H          0.99325        0.32575        1.47609
C         -1.17356        1.20335       -0.64248
H         -2.22443        0.99258       -0.88354
H         -0.90533        2.22390       -0.91936
H         -0.50748        0.46429       -1.09188
N         -4.15856       -0.14952       -0.88078
C         -5.13619        0.06445       -1.93224
H         -5.55826        1.07029       -1.84791
H         -4.65631       -0.02681       -2.91179
H         -5.96930       -0.66350       -1.88832
C         -3.53961       -1.46074       -0.99182
H         -3.05485       -1.56099       -1.96862
H         -2.77874       -1.56825       -0.21383
H         -4.27398       -2.28171       -0.88488
C         -4.74799        0.03934        0.43708
H         -3.98311       -0.09595        1.20559
H         -5.14540        1.05468        0.52355
H         -5.57066       -0.67537        0.63032
N          3.01764        1.20607       -0.88988
C          3.95868        0.67780       -1.90833
H          4.34729       -0.27684       -1.55035
H          3.41416        0.51387       -2.83835
H          4.76776        1.39549       -2.06180
C          2.32621        2.43829       -1.33076
H          1.79703        2.23129       -2.26184
H          1.61462        2.72456       -0.55571
H          3.06051        3.23217       -1.48640
C          3.68659        1.39103        0.42416
H          2.95151        1.75044        1.14295
H          4.07156        0.42849        0.76047
H          4.49539        2.11638        0.30667
