42
2msa2eda_60.log	Energy: -1072768.8784013
S          1.20969        1.99086       -0.31042
O          0.04061        2.59323       -1.00515
O          1.85510        0.91807       -1.12946
O          0.89419        1.51754        1.05402
C          2.42611        3.28524       -0.16080
H          2.66508        3.64768       -1.16083
H          2.00318        4.08429        0.44837
H          3.30739        2.85792        0.31931
S         -1.46055       -2.48137       -0.25473
O         -2.29258       -1.67069       -1.18565
O         -1.15917       -1.74034        1.00173
O         -0.23856       -3.04113       -0.88240
C         -2.47151       -3.87982        0.19928
H         -2.71734       -4.42682       -0.71112
H         -1.89807       -4.50673        0.88221
H         -3.37551       -3.50797        0.68174
H         -3.15490        0.50552        1.09365
H         -1.43298        0.91342        1.23671
H         -2.85564        2.78179        2.12354
H         -1.89752        3.27489        0.72000
H         -4.77419        2.72007        0.71854
H         -3.97556        4.00970        0.10556
H         -2.18822        0.01306       -0.96901
H         -3.01870        1.48490       -1.15177
C         -2.37375        1.19438        0.76304
C         -2.73344        2.64659        1.04144
N         -2.21866        1.02621       -0.70498
N         -3.91813        3.01037        0.25822
H         -1.35252        1.52406       -1.00631
H          2.87069       -0.85278        1.94936
H          2.62208       -2.60178        1.70133
H          4.82801       -2.12026        0.93442
H          3.84838       -2.37136       -0.51178
H          5.31655       -0.37265       -0.56979
H          3.75042        0.10976       -0.66699
H          0.72389       -1.20976        0.98145
H          1.67608       -0.49595       -0.18015
C          2.77785       -1.64298        1.20157
C          4.02686       -1.68145        0.33122
N          1.56383       -1.35685        0.40062
N          4.43819       -0.34084       -0.06558
H          1.27721       -2.13041       -0.22332
