34
2msa1a1eda_43.log	Energy: -988710.7827538
S         -2.61270        0.08528       -0.21230
O         -2.19249       -0.46565       -1.51666
O         -2.35232        1.54266       -0.05332
O         -2.03639       -0.68983        0.93549
H         -1.16262        0.44399        2.18489
C         -4.38145       -0.12034       -0.11983
H         -4.82517        0.43081       -0.94922
H         -4.60352       -1.18421       -0.20342
H         -4.72941        0.27467        0.83470
S          2.15882        1.24158       -0.30191
O          3.48864        1.80811       -0.12300
O          1.54615        0.72546        0.98394
O          2.05307        0.18155       -1.34500
H          0.85621       -0.90860       -1.00847
C          1.06393        2.55206       -0.83447
H          1.09842        3.35089       -0.09170
H          1.43362        2.92084       -1.79175
H          0.05069        2.15762       -0.94387
N         -0.71315        1.37317        2.13662
H         -1.29708        1.86072        1.43184
H          0.25844        1.22164        1.72317
H         -0.68812        1.84979        3.03201
H          0.20395       -3.72222       -0.29499
H          1.18861       -3.23310       -1.70195
H          2.54747       -3.84173        0.36393
H          2.87660       -2.22853       -0.28079
H          2.24389       -2.69844        2.27976
H          1.88316       -1.27633        1.53771
H         -0.63895       -1.62378       -1.31584
H         -0.15556       -1.44501        0.22666
C          0.90014       -2.97398       -0.68075
C          2.12288       -2.84303        0.22790
N          0.19366       -1.67371       -0.71357
N          1.72450       -2.28309        1.51781
