40
2msa1dma1eda_11.log	Energy: -1038037.7150275
S          2.45896       -0.87867       -0.44638
O          2.02225       -1.96985       -1.32901
O          1.66862       -0.83258        0.82868
O          2.51145        0.46207       -1.09241
C          4.14188       -1.22952        0.03681
H          4.16123       -2.20500        0.52306
H          4.75346       -1.23877       -0.86574
H          4.47715       -0.45094        0.72219
S         -2.76590        0.32360       -0.34540
O         -2.29741        0.54602        1.03944
O         -2.60129       -1.09440       -0.77773
O         -2.17665        1.28939       -1.31369
C         -4.52276        0.63194       -0.37950
H         -4.87914        0.46092       -1.39535
H         -5.00231       -0.05475        0.31827
H         -4.69235        1.66660       -0.08106
N         -0.62897       -2.32974        0.62660
C         -0.29870       -3.64973        0.05152
C         -1.20911       -2.37444        1.98459
H          0.23658       -1.74162        0.65516
H         -1.22073       -4.21685       -0.08726
H          0.20884       -3.48849       -0.89904
H          0.36971       -4.18081        0.73166
H         -2.09066       -3.01815        1.97562
H         -0.46551       -2.76524        2.68138
H         -1.50159       -1.35913        2.25543
H         -1.31895       -1.84298        0.00368
H         -0.50363        2.66492        1.12009
H          0.50350        1.20620        1.18453
H          1.71449        3.14505        2.21421
H          2.54107        2.52673        0.77584
H          0.95320        4.98648        0.90180
H          2.47298        4.77607        0.33188
H         -0.59065        1.75466       -1.01353
H          0.53527        3.02587       -1.09694
C          0.42717        2.21220        0.77105
C          1.64638        3.05306        1.12247
N          0.35224        2.09597       -0.70710
N          1.56515        4.33638        0.41999
H          1.10532        1.44590       -1.02750
