26
2msa2a_22.log	Energy: -904649.6428508
S          2.07396       -0.25795       -0.11071
O          1.26599       -0.85615       -1.21351
O          1.48603       -0.50605        1.22371
O          2.36326        1.18786       -0.33373
C          3.64478       -1.09287       -0.18760
H          4.07725       -0.91357       -1.17179
H          4.28388       -0.68630        0.59629
H          3.46952       -2.15727       -0.03122
S         -2.04326       -0.76546        0.00978
O         -3.44927       -1.00445       -0.23746
O         -1.65356        0.57643        0.47769
O         -1.26843       -1.09786       -1.31513
H         -0.26001       -0.94625       -1.24589
C         -1.41366       -1.94438        1.18129
H         -1.95490       -1.78790        2.11535
H         -1.60865       -2.94116        0.78570
H         -0.34458       -1.75549        1.31258
N          0.39889        2.36137        1.11124
H          0.66683        2.82592        1.97288
H         -0.23016        2.95351        0.50503
H          1.24763        2.05625        0.56873
H         -0.12764        1.49976        1.30856
N         -1.50294        3.36100       -0.69141
H         -1.14855        3.42128       -1.64119
H         -2.18141        4.10534       -0.56956
H         -1.99096        2.46899       -0.60395
