30
2msa1eda_125.log	Energy: -953192.9741309
S          1.99443       -1.18909       -0.06323
O          2.34194       -0.38748        1.16417
O          2.60192       -0.64955       -1.28838
O          0.52297       -1.37259       -0.14552
C          2.71083       -2.79875        0.21855
H          3.78803       -2.67320        0.32871
H          2.27551       -3.21852        1.12542
H          2.48413       -3.42175       -0.64714
S         -2.81625       -0.09014       -0.05570
O         -2.21945        0.27559        1.22309
O         -2.57645        0.75161       -1.21534
O         -4.42140       -0.13279        0.18247
H         -4.83361        0.47300       -0.45047
C         -2.47637       -1.78925       -0.40276
H         -1.38776       -1.86854       -0.49871
H         -2.83900       -2.37894        0.43931
H         -2.99009       -2.05223       -1.32708
H          0.36688        1.25410       -0.87101
H         -0.55379        2.62331       -0.22886
H          1.43022        3.48057       -1.33017
H          1.58899        3.78218        0.38813
H          3.15043        1.96944        0.52043
H          2.93184        1.58077       -1.03278
H         -0.45366        0.88417        1.33969
H          1.22780        0.73074        1.27245
C          0.38514        2.06979       -0.14486
C          1.59342        2.98416       -0.36733
N          0.41325        1.42439        1.20189
N          2.90170        2.36286       -0.38122
H          0.48431        2.11788        1.94468
