29
2msa1a1ma_12.log	Energy: -929313.2138507
S         -2.13613       -0.69110       -0.04118
O         -2.40538       -0.22398        1.32885
O         -0.81166       -1.40042       -0.14924
O         -2.26409        0.36724       -1.07588
C         -3.35044       -1.93077       -0.43816
H         -3.27144       -2.72824        0.30050
H         -4.33148       -1.45782       -0.39214
H         -3.14739       -2.30485       -1.44141
S          2.42249       -0.48411       -0.02904
O          3.65698       -0.27792        0.69743
O          2.02618        0.52241       -1.02470
O          1.26874       -0.65412        1.03132
H          0.37411       -0.93270        0.58617
C          2.44539       -2.05742       -0.85908
H          3.20746       -2.00163       -1.63682
H          2.69423       -2.82337       -0.12498
H          1.45683       -2.22619       -1.28924
N         -0.32830        1.77267        2.17582
H         -0.45202        2.45526        2.91563
H          0.48628        1.20572        2.39946
H         -1.13361        1.14091        2.17719
N         -0.21697        2.16773       -0.59266
H          0.63814        1.65379       -0.86200
H         -1.02753        1.58331       -0.89236
C         -0.25806        3.52738       -1.15915
H         -1.17334        4.02287       -0.83496
H          0.60685        4.09211       -0.81016
H         -0.24141        3.47210       -2.24774
H         -0.23810        2.16846        0.47049
