40
2msa1dma1eda_513.log	Energy: -1038007.7545251
S         -3.38393       -0.16794        0.17103
O         -4.68458       -0.61064        0.63223
O         -2.77883       -0.79559       -1.00038
O         -2.37784       -0.29908        1.39902
H         -1.45702       -0.54712        1.10269
C         -3.42665        1.58850       -0.09312
H         -4.10558        1.76750       -0.92819
H         -3.80808        2.05412        0.81600
H         -2.40561        1.91561       -0.32349
S          0.82015       -1.55785       -0.27797
O          0.11549       -0.93329        0.87194
O          2.08057       -2.22137        0.11059
O          1.07018       -0.53819       -1.36355
H          2.56225       -0.09897       -1.29689
C         -0.26661       -2.77375       -0.97725
H         -0.43767       -3.53305       -0.21321
H         -1.19981       -2.27477       -1.24527
H          0.22713       -3.20560       -1.84773
N         -0.18405        2.15526       -0.40075
C          0.09602        2.50476        0.97579
C          0.23501        3.15024       -1.36279
H          0.17677        1.23530       -0.63918
H         -0.51979        3.36133        1.27619
H         -0.15325        1.66135        1.62356
H          1.15169        2.78536        1.16004
H         -0.34879        4.06929       -1.23233
H          1.30280        3.43708       -1.27801
H          0.05936        2.77885       -2.37566
H          4.52844        1.79832       -0.07485
H          2.77883        2.04377       -0.33832
H          3.46962        1.38686        2.06836
H          2.21184        0.38651        1.35109
H          4.72717       -0.50076        2.21666
H          3.55098       -1.37814        1.44062
H          4.00922        0.52764       -1.96913
H          4.08247       -0.54346       -0.67390
C          3.54781        1.31630       -0.07243
C          3.27189        0.65110        1.28367
N          3.56334        0.24224       -1.10127
N          4.11682       -0.53351        1.41201
