35
2msa1ma1dma_87.log	Energy: -978628.5673385
S          2.59750       -0.51816       -0.02096
O          3.93162       -1.04066        0.17930
O          2.54033        0.91985        0.61228
O          1.46082       -1.31170        0.47526
H         -0.11994       -1.02687        1.24940
C          2.32169       -0.22113       -1.75168
H          3.14038        0.39986       -2.11561
H          2.32500       -1.19121       -2.25050
H          1.35954        0.28604       -1.86173
S         -0.90376        1.87433       -0.06915
O         -2.15135        1.21063        0.39754
O         -0.44932        1.42747       -1.39665
O          0.16316        1.75252        0.97968
H          1.58354        1.25952        0.72325
C         -1.27292        3.61355       -0.18844
H         -2.06017        3.73937       -0.93204
H         -1.60254        3.96315        0.78980
H         -0.36413        4.12950       -0.49887
N         -1.12130       -1.12421        1.48933
H         -1.56495       -0.20120        1.31293
C         -1.30905       -1.60029        2.87010
H         -2.37420       -1.72292        3.06887
H         -0.80057       -2.55633        2.99640
H         -0.89071       -0.87205        3.56495
H         -1.53334       -1.77134        0.75481
N         -2.16106       -2.40222       -0.75853
C         -1.13548       -1.99234       -1.72482
C         -3.43677       -1.71571       -0.98153
H         -2.29905       -3.40604       -0.82067
H         -0.96920       -0.91433       -1.63271
H         -0.19650       -2.50344       -1.49834
H         -1.42720       -2.20697       -2.76306
H         -3.29256       -0.64433       -0.81071
H         -3.82242       -1.85916       -2.00124
H         -4.18099       -2.08401       -0.26991
