29
2msa1a1ma_48.log	Energy: -929305.8595841
S          1.40693        1.32539        0.08088
O          2.78979        1.64124       -0.22331
O          1.13506        0.50256        1.26583
O          0.82665        0.59640       -1.19961
H         -0.09588        0.16291       -1.05052
C          0.44043        2.80638        0.20407
H          0.80460        3.34947        1.07693
H          0.59756        3.38254       -0.70758
H         -0.60613        2.51248        0.32428
S         -2.45437       -0.19237        0.03763
O         -2.37529        1.26249        0.20807
O         -2.51094       -1.00888        1.25825
O         -1.31726       -0.69866       -0.85577
H         -0.45471       -1.82459        0.18497
C         -3.92762       -0.53489       -0.90796
H         -4.78069       -0.19301       -0.32096
H         -3.86601        0.00995       -1.84994
H         -3.98769       -1.60908       -1.08212
N          0.29963       -2.12599        0.83875
H          1.17316       -2.33457        0.26903
H         -0.01970       -2.89112        1.42402
H          0.50149       -1.28600        1.39804
N          2.58448       -2.10116       -0.76201
H          2.81589       -2.82044       -1.44025
C          3.76010       -1.77338        0.06069
H          4.60999       -1.40610       -0.52423
H          3.48504       -0.99732        0.77782
H          4.07136       -2.66341        0.61396
H          2.30049       -1.27977       -1.29535
