38
2msa2dma_41.log	Energy: -1003288.5408643
S          2.64374       -0.37014       -0.02648
O          2.53300       -1.48884        0.92289
O          2.84654        0.96723        0.54136
O          1.44741       -0.39308       -0.97548
H          0.60922        0.83586       -1.18448
C          4.04198       -0.71253       -1.08222
H          4.93377       -0.72136       -0.45465
H          3.89266       -1.68446       -1.55235
H          4.10828        0.07621       -1.83168
S         -0.71154        2.06699        0.03079
O         -1.96062        2.73354       -0.29902
O         -0.07903        1.58393       -1.33029
O         -0.76990        0.93820        0.96148
H         -1.48324       -1.42678        0.03225
C          0.47360        3.23405        0.64855
H          0.57236        4.03358       -0.08565
H          0.08746        3.61879        1.59317
H          1.41504        2.69609        0.79006
N         -0.55405       -1.85924        0.31182
C         -0.34173       -3.12158       -0.42005
C         -0.48021       -2.00528        1.78158
H          0.17847       -1.19580       -0.00818
H         -1.10070       -3.84826       -0.12341
H         -0.41455       -2.92389       -1.48987
H          0.65467       -3.49971       -0.18664
H         -1.24201       -2.71758        2.10602
H          0.51940       -2.35110        2.04604
H         -0.65568       -1.02780        2.22717
N         -3.03936       -0.72196       -0.40827
C         -3.74804       -0.52132        0.85612
C         -3.83087       -1.45184       -1.39471
H         -2.79730        0.19329       -0.78143
H         -3.91657       -1.49217        1.33540
H         -3.12902        0.09552        1.51037
H         -4.72300       -0.03154        0.72127
H         -4.01173       -2.46997       -1.03389
H         -4.80647       -0.98269       -1.58979
H         -3.27998       -1.51425       -2.33655
