42
2msa2eda_614.log	Energy: -1072728.3969246
S          2.04059       -1.63004        0.61308
O          2.54680       -2.93185        0.98223
O          0.85211       -1.12273        1.33260
O          1.71227       -1.59779       -0.94004
H          0.73668       -1.46670       -1.10261
C          3.31917       -0.41558        0.73342
H          3.63792       -0.40533        1.77713
H          4.13830       -0.74605        0.09326
H          2.92885        0.56520        0.41990
S         -2.04393       -1.62666       -0.61272
O         -2.55296       -2.92750       -0.98144
O         -0.85457       -1.12203       -1.33265
O         -1.71530       -1.59476        0.94030
H         -0.73947       -1.46511        1.10279
C         -3.32001       -0.40958       -0.73329
H         -3.63839       -0.39859       -1.77712
H         -4.14005       -0.73837       -0.09343
H         -2.92775        0.57039       -0.41970
H          1.79413        3.78162       -1.86242
H          3.24908        2.77431       -1.93887
H          1.59978        1.79665       -3.39595
H          1.78846        0.73910       -1.99498
H         -0.50171        2.39400       -2.63560
H         -0.44636        0.89328       -1.97407
H          2.60457        3.31846        0.35669
H          1.22696        2.44825        0.18410
C          2.20989        2.79705       -1.58888
C          1.41655        1.71746       -2.31498
N          2.18835        2.54467       -0.15059
N         -0.00540        1.80759       -1.97380
H         -1.78577        3.78599        1.86134
H         -3.24314        2.78226        1.93854
H         -1.59604        1.80086        3.39560
H         -1.78696        0.74353        1.99477
H          0.50664        2.39393        2.63503
H          0.44834        0.89304        1.97408
H         -2.59820        3.32373       -0.35732
H         -1.22229        2.45081       -0.18478
C         -2.20397        2.80231        1.58833
C         -1.41298        1.72114        2.31464
N         -2.18339        2.54930        0.15013
N          0.00918        1.80823        1.97347
