32
2msa2ma_204.log	Energy: -953956.3902156
S          1.90715        0.55995       -0.35879
O          2.62634        1.76475        0.04067
O          1.03064        0.63907       -1.52366
O          1.04824        0.14726        0.90753
H          0.14193       -0.36931        0.67914
C          3.03414       -0.79106       -0.55796
H          3.62484       -0.58186       -1.45085
H          3.66979       -0.82845        0.32706
H          2.43706       -1.70780       -0.66535
S         -2.30092       -0.36770       -0.06274
O         -3.52999       -1.03802        0.32772
O         -1.06891       -1.02349        0.52648
O         -2.27599        1.10500        0.21330
H         -1.21014        1.95438        0.90637
C         -2.10532       -0.51883       -1.82784
H         -2.11874       -1.58151       -2.07293
H         -2.94572       -0.00964       -2.30052
H         -1.15273       -0.06536       -2.10533
N         -0.40712        2.58309        1.24592
H         -0.66474        3.02546        2.12518
C         -0.07399        3.57530        0.19281
H          0.81857        4.13077        0.47668
H          0.11854        3.02980       -0.73028
H         -0.92551        4.24189        0.06047
H          0.37937        1.94065        1.41225
N          0.90623       -3.21618       -0.13847
H          0.01914       -2.71751       -0.14943
C          1.29999       -3.46813        1.24766
H          0.57624       -4.05706        1.82750
H          2.26185       -3.99029        1.26704
H          1.43327       -2.50882        1.75641
H          0.77199       -4.08995       -0.63557
