42
2msa2eda_227.log	Energy: -1072757.9491630
S          2.37189       -1.38335       -0.01470
O          3.08176       -0.35661       -0.78704
O          1.59099       -2.35571       -0.82180
O          1.49233       -0.78404        1.05689
C          3.59574       -2.33845        0.86117
H          4.23510       -2.81975        0.12074
H          4.17497       -1.65791        1.48539
H          3.08181       -3.08221        1.46994
S          0.61553        2.35696       -0.07726
O         -0.06369        3.58206        0.30066
O         -0.16651        1.36653       -0.83489
O          1.16398        1.69481        1.23395
H          1.35549        0.68224        1.12905
C          2.07766        2.72242       -1.01308
H          1.75840        3.18821       -1.94594
H          2.68597        3.40865       -0.42387
H          2.59677        1.77657       -1.18916
H         -0.94609       -0.93215       -2.93293
H         -1.56591       -2.53492       -2.50112
H         -3.38266       -1.01800       -3.28128
H         -3.65497       -1.58893       -1.64819
H         -3.03910        0.53083       -0.78408
H         -2.58736        1.07860       -2.26487
H         -0.75288       -0.33817       -0.71127
H         -1.61084       -1.65740       -0.12740
C         -1.58387       -1.47550       -2.23076
C         -3.01732       -0.93190       -2.25157
N         -0.96986       -1.33217       -0.88948
N         -3.20060        0.42755       -1.78633
H         -0.05516       -1.83147       -0.83767
H         -3.31238       -1.03594        3.14076
H         -1.76848       -1.87530        2.93676
H         -1.47103        0.57635        3.11748
H         -0.84911       -0.07427        1.61147
H         -3.38487        1.37102        1.89774
H         -2.08657        1.79252        1.01255
H         -3.32784       -2.73515        1.37086
H         -3.65289       -1.24177        0.78597
C         -2.47466       -1.19967        2.44544
C         -1.77150        0.12308        2.16258
N         -2.92177       -1.82269        1.19005
N         -2.62009        0.99366        1.34513
