40
2msa1dma1eda_230.log	Energy: -1038019.5885944
S         -2.51043        0.02421        0.70546
O         -1.78324       -1.10709        1.30135
O         -2.61513        0.02508       -0.74936
O         -1.92101        1.37356        1.22632
H         -0.90532        1.45883        0.93366
C         -4.12996        0.09410        1.42690
H         -4.64615       -0.82206        1.13893
H         -4.02271        0.15809        2.50911
H         -4.64207        0.96899        1.02755
S          0.95615        1.79148       -0.84304
O          2.12491        2.66055       -0.79531
O          0.44221        1.44487        0.54330
O          1.14159        0.53365       -1.62040
H          0.95466       -0.84666       -0.62104
C         -0.38040        2.66429       -1.63957
H         -0.57184        3.58132       -1.08126
H         -0.05815        2.89702       -2.65495
H         -1.25920        2.01640       -1.65055
N          2.96885       -1.13745        1.74824
C          2.38136       -0.26366        2.76962
C          3.89439       -0.41598        0.86830
H          3.46534       -1.89805        2.20193
H          1.78327        0.50511        2.27163
H          1.72496       -0.85054        3.41805
H          3.14285        0.23201        3.38878
H          3.35470        0.37556        0.34130
H          4.72344        0.05050        1.41920
H          4.30487       -1.10343        0.12420
H         -1.39658       -2.37700       -1.27580
H         -0.72428       -3.83744       -2.01674
H          0.26494       -3.63881        0.15707
H          1.52416       -3.23494       -1.04019
H         -0.07173       -1.35320        0.58704
H          1.60058       -1.59846        0.73072
H         -0.59865       -2.17139       -3.64025
H          0.16322       -1.10556       -2.66586
C         -0.48222       -2.81652       -1.70392
C          0.57126       -2.92099       -0.60786
N          0.04226       -2.09797       -2.85887
N          0.77703       -1.61454        0.06359
