31
2msa1tma_28.log	Energy: -943113.1308143
S         -0.92325       -2.06429       -0.04243
O         -0.92237       -3.50872       -0.06348
O         -0.14995       -1.34158       -1.07074
O         -0.41276       -1.57729        1.38266
H          0.28094       -0.87203        1.30140
C         -2.57863       -1.44514       -0.08620
H         -3.00647       -1.75642       -1.04030
H         -3.11921       -1.90187        0.74347
H         -2.53154       -0.34849        0.00338
S          2.35557        0.58970       -0.01597
O          1.56429        0.20844        1.16485
O          2.01091        1.83459       -0.67162
O          2.36081       -0.62115       -1.03648
H          1.42943       -0.97569       -1.14274
C          4.07056        0.59286        0.43180
H          4.20562        1.40557        1.14611
H          4.31294       -0.36870        0.88234
H          4.65462        0.77048       -0.47094
N         -2.21239        1.76564        0.02901
C         -1.54577        2.01599       -1.24086
H         -0.56484        1.53683       -1.24755
H         -2.14068        1.59745       -2.05885
H         -1.40084        3.09509       -1.43122
C         -3.53321        2.36987        0.05690
H         -4.14273        1.97036       -0.76003
H         -4.03061        2.13576        1.00315
H         -3.49516        3.47029       -0.04992
C         -1.40142        2.21927        1.14919
H         -1.89405        1.95835        2.09096
H         -0.42422        1.73237        1.12325
H         -1.24048        3.31321        1.13228
