37
2msa1ma1eda_291.log	Energy: -1013360.1479496
S         -1.56687       -1.83378        0.53999
O         -2.12839       -0.76493       -0.29222
O         -2.48463       -2.59348        1.36625
O         -0.45893       -1.20783        1.47781
C         -0.65446       -2.92638       -0.52890
H         -1.39461       -3.44787       -1.13692
H          0.00662       -2.31684       -1.14757
H         -0.09415       -3.62966        0.08707
S          2.31321       -0.41253       -0.48610
O          2.87548        0.86083       -0.00305
O          1.18793       -0.23848       -1.44637
O          1.92252       -1.34420        0.62313
H          0.50325       -1.26554        1.11956
C          3.61142       -1.26192       -1.36294
H          3.94000       -0.62019       -2.18057
H          4.42631       -1.44351       -0.66217
H          3.21253       -2.20174       -1.74491
N         -3.25380        1.87955       -0.53837
H         -3.46493        0.98610       -0.09761
C         -3.43662        1.75683       -1.98910
H         -4.46278        1.50522       -2.28287
H         -3.15705        2.69578       -2.47489
H         -2.77508        0.96835       -2.35588
H         -3.87902        2.57791       -0.15054
H          1.27938        2.54680       -0.70589
H         -0.17946        3.56909       -0.79814
H          1.42561        4.13321        1.11097
H         -0.22931        3.79732        1.64485
H          1.93688        1.80455        1.71304
H          1.12424        2.44958        3.01112
H         -0.16628        0.88162       -0.76644
H         -0.30650        1.20071        0.84448
C          0.35258        2.82518       -0.20157
C          0.66621        3.34427        1.20409
N         -0.47924        1.60079       -0.09400
N          1.05867        2.21228        2.03021
H         -1.51306        1.77851       -0.20781
