40
2msa1dma1eda_326.log	Energy: -1038017.5895124
S         -1.37394        1.88268        0.22584
O         -0.85163        3.15855        0.67392
O         -1.20343        0.73658        1.14120
O         -0.84124        1.50065       -1.20275
H          0.10121        1.10115       -1.23763
C         -3.10165        2.01294       -0.14699
H         -3.58638        2.36915        0.76297
H         -3.21936        2.73802       -0.95219
H         -3.46084        1.01504       -0.41853
S          2.52847        0.10416       -0.64211
O          1.36448        0.31729       -1.56878
O          2.52982       -1.29515       -0.12201
O          2.60684        1.11902        0.41566
H          0.02444       -0.42045        1.45781
C          3.97367        0.24775       -1.67213
H          3.91067       -0.50404       -2.45853
H          3.98656        1.25235       -2.09496
H          4.84952        0.08078       -1.04497
N          0.68063       -1.09639        1.89533
C         -0.08250       -2.29003        2.30845
C          1.39488       -0.40104        2.98979
H          1.36840       -1.33725        1.14366
H         -0.80753       -2.00257        3.07194
H         -0.59420       -2.67221        1.42416
H          0.60467       -3.03605        2.71134
H          0.66685       -0.05367        3.72411
H          2.09880       -1.09483        3.45237
H          1.92917        0.44306        2.55248
H         -2.88958       -3.30411       -0.78634
H         -3.86098       -2.27667       -1.85221
H         -1.67096       -2.37105       -2.80805
H         -1.84839       -0.76234       -2.09606
H         -0.20698       -2.93551       -1.09879
H          0.15811       -1.36216       -1.28275
H         -4.04270       -1.70267        0.56514
H         -2.50059       -1.13936        0.47846
C         -3.02844       -2.26743       -1.13934
C         -1.75848       -1.82665       -1.85690
N         -3.34083       -1.32885       -0.06383
N         -0.58351       -1.99800       -0.99556
