25
2msa1ma_57.log	Energy: -893792.7504737
S         -1.08168       -0.91212        0.05913
O         -0.70753       -0.10557       -1.11419
O         -1.01612       -0.24063        1.34921
O         -0.18593       -2.22452        0.07502
H          0.76779       -1.94139        0.07764
C         -2.67297       -1.62190       -0.20415
H         -3.38316       -0.78117       -0.19461
H         -2.66050       -2.13396       -1.16591
H         -2.86759       -2.31526        0.61423
S          2.62574        0.32218       -0.06786
O          4.00347        0.63196       -0.36039
O          2.22618       -1.08739        0.04965
O          1.73539        1.01011       -1.18924
H          0.82431        0.61332       -1.21903
C          2.12109        1.15395        1.42059
H          2.72589        0.74646        2.23170
H          2.31536        2.21844        1.29082
H          1.06113        0.95349        1.59122
N         -4.35152        1.18945       -0.00082
H         -5.05812        1.37880       -0.70390
C         -3.24729        2.14858       -0.10729
H         -3.55054        3.20005       -0.01009
H         -2.50964        1.92755        0.66808
H         -2.75062        2.01811       -1.07194
H         -4.80729        1.27275        0.90187
