26
2msa2a_47.log	Energy: -904638.3481760
S          2.07013       -0.80076       -0.05171
O          2.96514        0.33484       -0.36972
O          1.39912       -1.40829       -1.21361
O          1.08654       -0.44294        1.03142
C          3.10722       -2.06262        0.67081
H          3.83794       -2.36473       -0.07978
H          3.60355       -1.64261        1.54563
H          2.47479       -2.90485        0.95243
S         -2.56042       -0.08455        0.01044
O         -2.63709       -0.36063        1.43457
O         -2.03546        1.20579       -0.42508
O         -4.06892       -0.20987       -0.58275
H         -4.68192       -0.21591        0.16661
C         -1.76145       -1.37999       -0.88476
H         -0.68730       -1.32734       -0.67442
H         -2.18993       -2.32638       -0.55656
H         -1.93936       -1.20718       -1.94630
N          0.27365        2.08191        1.04691
H          0.94810        2.62649        0.43177
H          0.64555        1.08596        1.13019
H          0.17470        2.50826        1.96283
H         -0.64203        2.01018        0.58646
N          2.18064        3.10691       -0.71758
H          2.91014        3.75914       -0.44876
H          1.85974        3.37439       -1.64276
H          2.60151        2.17228       -0.78721
