28
2msa1dma_53.log	Energy: -918453.6347166
S          2.12593       -0.45193       -0.05943
O          1.29871       -0.44062        1.15577
O          2.29500        0.81236       -0.75413
O          1.59452       -1.57762       -1.03168
H          0.59417       -1.52399       -1.09986
C          3.71286       -1.13364        0.33389
H          3.56481       -2.09666        0.82082
H          4.27341       -1.23810       -0.59481
H          4.20159       -0.42533        1.00338
S         -2.03530       -1.13357       -0.03832
O         -3.01965       -2.18284        0.07944
O         -0.98658       -1.25867       -1.06655
O         -1.32741       -0.97542        1.37739
H         -0.37731       -0.70984        1.28739
C         -2.81754        0.43572       -0.27321
H         -3.31645        0.39757       -1.24269
H         -3.54399        0.56559        0.52943
H         -2.02556        1.20055       -0.25126
N         -0.31450        2.47712       -0.12222
C         -0.06547        2.77953        1.27940
C         -0.72839        3.64327       -0.88648
H          0.52592        2.07921       -0.53157
H         -1.00823        3.04536        1.77172
H          0.34095        1.89477        1.77474
H          0.63950        3.61538        1.42603
H         -1.69365        4.00421       -0.51162
H         -0.01344        4.48124       -0.82790
H         -0.85583        3.37135       -1.93793
