44
2msa2tma_45.log	Energy: -1052597.6328305
S          0.42961       -1.38590       -0.70474
O          0.91794       -2.75245       -0.54098
O          0.44088       -0.63283        0.61269
O         -0.93966       -1.28478       -1.30536
H         -2.09621       -1.27689       -0.24869
C          1.50699       -0.49145       -1.79423
H          2.49619       -0.44966       -1.32342
H          1.53602       -1.03158       -2.74124
H          1.08130        0.50502       -1.92928
S         -1.25375        2.29085       -0.20059
O         -2.61983        1.76449       -0.13658
O         -0.55110        2.21018       -1.47257
O         -0.39378        1.66670        0.95335
H         -0.04344        0.69279        0.73812
C         -1.28715        3.98452        0.34017
H         -1.88698        4.53530       -0.38506
H         -1.74263        4.02786        1.32899
H         -0.26449        4.35986        0.36002
N         -2.87607       -1.53925        0.43328
C         -2.78283       -3.01493        0.54219
H         -2.91451       -3.45022       -0.44832
H         -1.78911       -3.27379        0.91024
H         -3.55297       -3.37810        1.22681
C         -2.60913       -0.87974        1.73598
H         -1.58943       -1.12023        2.03905
H         -2.70238        0.19691        1.59925
H         -3.33233       -1.24183        2.47115
C         -4.15481       -1.09107       -0.16586
H         -4.10197       -0.01104       -0.30353
H         -4.27696       -1.57956       -1.13321
H         -4.97927       -1.36147        0.49874
N          4.07968       -0.05277        0.26838
C          3.86180       -1.13548        1.21496
H          2.79053       -1.26045        1.39027
H          4.24938       -2.07036        0.80003
H          4.36287       -0.94876        2.18507
C          5.48717        0.10984       -0.04058
H          5.88948       -0.82361       -0.44567
H          5.61497        0.89277       -0.79479
H          6.08685        0.38652        0.84918
C          3.49342        1.18830        0.74345
H          3.60740        1.96726       -0.01756
H          2.42638        1.04120        0.92696
H          3.96398        1.54679        1.67977
