41
2msa1dma1tma_44.log	Energy: -1027942.5432297
S         -0.73900       -1.80604       -0.76773
O         -0.03846       -2.89316       -1.43853
O         -0.68147       -0.48712       -1.60985
O         -0.30208       -1.53072        0.61730
H          1.36498       -1.35144        0.95281
C         -2.48368       -2.08204       -0.75028
H         -2.81095       -2.21117       -1.78220
H         -2.65314       -2.99330       -0.17548
H         -2.94022       -1.19953       -0.27673
S          1.65378        1.82518       -0.26520
O          2.62152        1.43594        0.80306
O          0.37078        2.33474        0.21611
O          1.50613        0.68437       -1.24418
H          0.20091        0.03471       -1.46168
C          2.45455        3.12642       -1.18342
H          2.63663        3.95299       -0.49625
H          3.39156        2.74189       -1.58573
H          1.78355        3.43353       -1.98581
N          2.39002       -1.23305        1.10091
C          3.09448       -1.88697       -0.02430
C          2.75679       -1.73739        2.43723
H          2.55042       -0.19262        1.04654
H          2.80916       -2.93882       -0.06927
H          2.79449       -1.38091       -0.94182
H          4.17098       -1.78695        0.12361
H          2.53609       -2.80432        2.49779
H          3.82130       -1.56857        2.60672
H          2.17707       -1.19775        3.18618
N         -3.33636        0.74298        0.60556
C         -3.08506        1.73452       -0.43031
H         -2.02807        1.71721       -0.70318
H         -3.68342        1.50228       -1.31765
H         -3.33836        2.75822       -0.09624
C         -4.72932        0.74526        1.01206
H         -5.37091        0.54267        0.14812
H         -4.90101       -0.03713        1.75860
H         -5.04041        1.71255        1.45168
C         -2.44981        0.94342        1.74317
H         -2.58996        0.13435        2.46732
H         -1.41156        0.93773        1.40560
H         -2.64039        1.90688        2.25237
