38
2msa1ma1tma_88.log	Energy: -1003277.5742641
S         -2.17415       -0.12844       -0.55417
O         -1.66987        1.22491       -0.30897
O         -2.20364       -1.05743        0.56773
O         -1.42624       -0.75962       -1.77970
H         -0.46321       -1.10499       -1.54377
C         -3.80693        0.00404       -1.24345
H         -4.43423        0.46517       -0.47990
H         -3.76067        0.62884       -2.13486
H         -4.16201       -0.99812       -1.48146
S          1.52845       -1.59217        0.01936
O          2.96174       -1.85790       -0.04448
O          0.89434       -1.53986       -1.34801
O          1.16836       -0.34782        0.77659
H          1.18677        1.00719       -0.05394
C          0.71547       -2.90897        0.89683
H          0.90313       -3.83854        0.35896
H          1.13928       -2.95121        1.90069
H         -0.35070       -2.67705        0.93576
N         -0.72606        0.11162        3.18505
H         -0.04419       -0.18266        2.49051
C         -0.82350        1.56608        3.16659
H         -1.11137        1.99032        2.19072
H         -1.55780        1.89930        3.90731
H          0.14041        1.99797        3.45970
H         -1.60447       -0.28970        2.87266
N          1.50072        1.87317       -0.58368
C          1.04152        1.73810       -1.98884
H          1.39927        0.78403       -2.37866
H         -0.04771        1.74555       -1.99355
H          1.43993        2.57040       -2.57413
C          0.91265        3.05706        0.08550
H         -0.17214        2.96808        0.04052
H          1.23333        3.06466        1.12781
H          1.25401        3.96328       -0.42076
C          2.98121        1.84462       -0.48563
H          3.26131        1.88080        0.56710
H          3.34343        0.90832       -0.91253
H          3.39623        2.70088       -1.02204
