37
2msa1ma1eda_190.log	Energy: -1013360.2005287
S         -2.54262       -1.23260       -0.03128
O         -3.60090       -2.07331        0.48830
O         -1.56037       -1.86479       -0.92772
O         -1.78596       -0.59239        1.19281
C         -3.22124        0.16489       -0.89488
H         -3.78536       -0.23691       -1.73732
H         -3.87778        0.70240       -0.21061
H         -2.39315        0.79030       -1.24036
S          0.12235        2.15773       -0.10467
O         -0.30762        1.65132       -1.42275
O          1.53938        1.88608        0.21737
O         -0.79850        1.69060        0.99313
H         -1.36882        0.34315        1.02493
C         -0.07458        3.92961       -0.12079
H         -1.11810        4.15603       -0.33964
H          0.20820        4.31590        0.85836
H          0.57855        4.32937       -0.89687
N          1.39618       -0.51083        1.95899
H          1.50683        0.46681        1.68387
C          2.51859       -0.96636        2.77944
H          2.64086       -0.40033        3.71065
H          2.38529       -2.02164        3.03286
H          3.44434       -0.87679        2.20356
H          0.51718       -0.57649        2.46466
H          1.65234       -1.50084       -2.51074
H          1.16302       -0.01776       -1.66443
H          3.62799       -0.03433       -2.06166
H          3.23437       -0.02935       -0.34643
H          4.19461       -2.33819       -1.88216
H          4.75759       -1.75136       -0.46839
H          0.16048       -1.94531       -0.65940
H          1.69847       -2.62417       -0.41010
C          1.74719       -0.93561       -1.57819
C          3.20243       -0.64155       -1.25261
N          1.16504       -1.75721       -0.48777
N          3.91483       -1.90019       -1.01040
H          1.24257       -1.26063        0.47167
