35
2msa1ma1dma_205.log	Energy: -978620.1080340
S          1.93268       -0.95297       -0.25727
O          1.48490       -2.37912       -0.22736
O          1.88345       -0.32877        1.07638
O          1.20033       -0.16323       -1.29609
H         -0.30450       -0.21709       -1.38289
C          3.62530       -0.96988       -0.80515
H          4.20761       -1.54132       -0.08235
H          3.66298       -1.43530       -1.78983
H          3.97175        0.06295       -0.85028
S         -2.21596        0.33874       -0.41079
O         -3.55178       -0.20388       -0.56904
O         -1.31811       -0.32851       -1.51646
O         -1.56318        0.16525        0.90152
H         -0.87476       -1.34141        1.38536
C         -2.18658        2.06645       -0.79175
H         -2.52439        2.18660       -1.82115
H         -2.87494        2.55391       -0.09956
H         -1.15489        2.41520       -0.62913
N         -0.61122       -2.34925        1.43866
H          0.26459       -2.45308        0.85150
C         -1.71353       -3.17053        0.88611
H         -1.45345       -4.22615        0.95839
H         -2.63468       -2.96407        1.43022
H         -1.84524       -2.89488       -0.16009
H         -0.39264       -2.57958        2.40502
N          0.71678        2.54555        0.45458
C          0.38805        3.25912        1.67681
C          1.92480        3.03905       -0.18421
H          0.85118        1.56211        0.67771
H          0.15555        4.30566        1.44574
H         -0.49654        2.80568        2.13365
H          1.20319        3.25335        2.42106
H          1.76887        4.06782       -0.52965
H          2.80347        3.03748        0.48505
H          2.14727        2.41648       -1.05504
