40
2msa1dma1eda_425.log	Energy: -1038012.2788433
S          1.31530        2.00043        0.39100
O          2.76591        2.19765        0.42760
O          0.83927        1.04646        1.45040
O          0.79360        1.59372       -0.94924
H          1.39852        0.17170       -1.49619
C          0.52710        3.55774        0.75091
H          0.83658        3.86854        1.74899
H          0.85098        4.28170        0.00317
H         -0.55275        3.41251        0.70661
S         -1.06051       -1.69769        0.46719
O         -0.29226       -2.60439        1.31941
O         -0.56200       -1.51926       -0.89964
O         -1.24368       -0.30689        1.17079
H         -0.36228        0.23561        1.26470
C         -2.75454       -2.20429        0.39443
H         -2.77004       -3.16986       -0.11250
H         -3.12643       -2.29776        1.41477
H         -3.29716       -1.43678       -0.17287
N         -3.84351        0.59819       -0.99132
C         -2.69754        1.17478       -1.68622
C         -4.14208        1.28865        0.25587
H         -4.65623        0.62948       -1.59747
H         -1.79488        1.04732       -1.08333
H         -2.53710        0.64843       -2.63062
H         -2.81880        2.25142       -1.89824
H         -3.31060        1.13941        0.95131
H         -4.29580        2.37452        0.12917
H         -5.04251        0.86309        0.70873
H          3.96089       -1.29600       -1.71606
H          3.61815        0.28335       -0.93721
H          3.96571       -1.51849        0.76949
H          2.33731       -0.86310        0.84435
H          3.08537       -3.51818       -0.02030
H          1.64007       -2.97055        0.57568
H          2.06751       -0.60258       -2.82630
H          1.40758       -1.51581       -1.58994
C          3.25788       -0.73561       -1.09485
C          3.01465       -1.46297        0.22772
N          1.95537       -0.66871       -1.81818
N          2.41381       -2.76233       -0.04890
