41
2msa1dma1tma_102.log	Energy: -1027937.9896758
S         -0.11218        1.73906       -0.79612
O         -0.77731        0.68790       -1.62997
O          1.05770        2.35466       -1.44853
O          0.23117        1.20047        0.56170
H          1.75135        0.75573        0.65160
C         -1.35016        2.98538       -0.54694
H         -1.62993        3.36838       -1.52902
H         -2.20920        2.53026       -0.03714
H         -0.90475        3.77580        0.05836
S         -0.14093       -2.43043       -0.11405
O         -1.32450       -1.99881        0.60925
O          1.14698       -2.39936        0.58484
O          0.00152       -1.67826       -1.48561
H         -0.34844       -0.69633       -1.48952
C         -0.38666       -4.08869       -0.71119
H         -1.32209       -4.11690       -1.26921
H          0.45741       -4.36005       -1.34475
H         -0.43721       -4.73828        0.16329
N         -3.70535        1.21576        1.00215
C         -2.87036        0.69481        2.07956
C         -3.92957        0.23120       -0.05029
H         -4.59686        1.51864        1.37916
H         -1.88176        0.45019        1.68216
H         -2.75168        1.46116        2.85193
H         -3.27936       -0.21840        2.54357
H         -2.97659        0.00335       -0.53533
H         -4.35162       -0.71689        0.32367
H         -4.60630        0.64673       -0.80304
N          2.80384        0.59461        0.67062
C          3.15504       -0.10161       -0.59452
H          2.64819       -1.06636       -0.60469
H          2.80880        0.51547       -1.42497
H          4.23905       -0.23478       -0.63689
C          3.41321        1.94464        0.73312
H          3.05390        2.51488       -0.12484
H          3.09238        2.43122        1.65492
H          4.50158        1.84888        0.71702
C          3.11379       -0.22604        1.86478
H          2.77578        0.30905        2.75313
H          2.57873       -1.17160        1.77635
H          4.19284       -0.39169        1.91695
