35
2msa1ma1dma_324.log	Energy: -978610.6931141
S          3.07985       -0.47961       -0.31218
O          4.31543       -1.23327       -0.38737
O          2.44190       -0.27188        0.98723
O          2.03797       -1.18198       -1.28642
H          1.10166       -1.12074       -0.94326
C          3.31677        1.10373       -1.08211
H          4.08734        1.62034       -0.50729
H          3.65669        0.93077       -2.10341
H          2.36990        1.65680       -1.04517
S         -1.25540       -0.81112        0.63836
O         -1.46194        0.65023        0.76115
O         -0.48268       -1.19352       -0.56760
O         -2.58020       -1.53171        0.66738
H         -3.54897       -0.78702       -0.18734
C         -0.36335       -1.38043        2.06269
H          0.62671       -0.92158        2.03005
H         -0.92047       -1.08496        2.95161
H         -0.28375       -2.46548        1.99228
N          0.63690        2.72163       -0.09388
H          0.17559        3.55399       -0.44516
C          1.32705        3.01012        1.16339
H          0.67324        3.38874        1.96299
H          1.80265        2.09242        1.51984
H          2.11575        3.74999        0.99015
H         -0.08250        2.01967        0.07076
N         -4.16623       -0.14010       -0.81777
C         -3.35835        0.22772       -2.00802
C         -4.58218        1.02379        0.00151
H         -4.98142       -0.67800       -1.10711
H         -2.48146        0.77458       -1.66048
H         -3.02914       -0.68465       -2.50484
H         -3.95509        0.84453       -2.68228
H         -3.67433        1.47917        0.40031
H         -5.14069        1.73100       -0.61448
H         -5.20104        0.66891        0.82577
