40
2msa1dma1eda_162.log	Energy: -1038021.8901862
S          1.12071        2.00281        0.17686
O          2.35642        1.47929       -0.43546
O          0.98964        1.77164        1.62221
O         -0.08186        1.48055       -0.59113
C          1.10192        3.76460       -0.09318
H          1.96926        4.18722        0.41458
H          1.15503        3.94654       -1.16640
H          0.17840        4.16517        0.32523
S         -2.99847       -0.26536       -0.41811
O         -2.18146       -1.48799       -0.46829
O         -3.45865        0.27419       -1.68521
O         -2.26939        0.82454        0.44587
H         -1.36663        1.13775        0.03807
C         -4.38554       -0.58412        0.64417
H         -4.01358       -0.95266        1.59964
H         -4.94182        0.34464        0.76698
H         -4.99546       -1.33830        0.14619
N          1.17044       -1.25359        1.72632
C          2.09193       -2.29538        2.17204
C         -0.12094       -1.29471        2.41205
H          1.57425       -0.33019        1.88086
H          1.64703       -3.27675        1.97415
H          3.01922       -2.22051        1.60009
H          2.30773       -2.23204        3.24876
H         -0.66301       -2.19949        2.11685
H         -0.01074       -1.29418        3.50619
H         -0.70974       -0.42370        2.11844
H          1.57314       -3.05047       -1.40511
H          0.93208       -2.17534       -2.81709
H          3.38829       -2.06106       -2.72079
H          2.66790       -0.45196       -2.59312
H          4.51204       -1.25613       -0.93768
H          3.28020       -0.32752       -0.40326
H         -0.38705       -1.57225       -0.94139
H          0.92200       -1.29467        0.08504
C          1.44974       -2.06459       -1.86008
C          2.80921       -1.40577       -2.06260
N          0.59584       -1.26437       -0.95419
N          3.50945       -1.24144       -0.79356
H          0.56001       -0.26550       -1.20445
