25
2msa1ma_68.log	Energy: -893786.9154765
S          2.34561       -0.33009       -0.10595
O          1.30839       -0.84374       -0.99948
O          3.57879        0.15122       -0.69755
O          2.73482       -1.52918        0.92061
H          3.61838       -1.84758        0.68375
C          1.63719        0.83651        1.00666
H          1.21535        1.64071        0.37949
H          0.82653        0.34094        1.54465
H          2.42467        1.18738        1.67295
S         -2.02305       -0.61848        0.00359
O         -2.29619        0.42528       -0.97399
O         -1.42050       -0.22425        1.27170
O         -1.16062       -1.78153       -0.65778
H         -0.22582       -1.47289       -0.79554
C         -3.50611       -1.54389        0.30972
H         -4.21978       -0.84795        0.75169
H         -3.87840       -1.92641       -0.64020
H         -3.27207       -2.35226        1.00139
N         -0.25919        2.77542       -0.65482
H         -0.04722        3.50935       -1.32174
C         -1.01653        3.30198        0.48016
H         -1.96202        3.79158        0.20777
H         -1.25046        2.47686        1.15901
H         -0.40270        4.02402        1.02806
H         -0.81780        2.07548       -1.13708
