38
2msa2dma_62.log	Energy: -1003286.4310332
S         -0.51620        2.12555        0.23208
O         -1.59144        2.96369        0.73057
O         -0.86258        0.78408       -0.25157
O          0.55463        1.99039        1.37830
C          0.35487        2.96922       -1.06481
H          1.19231        2.33491       -1.36797
H         -0.35211        3.11489       -1.88257
H          0.69342        3.92752       -0.67075
S          2.47908       -0.46467       -0.32142
O          2.57004        0.64854       -1.27358
O          1.64069       -1.60752       -0.77515
O          2.06539       -0.02625        1.05740
H          1.18803        1.19775        1.21836
C          4.12462       -1.12305       -0.11571
H          4.77183       -0.31499        0.22561
H          4.08857       -1.92537        0.62114
H          4.45812       -1.50015       -1.08281
N         -0.75057       -1.96802        0.46367
C         -0.66661       -1.55441        1.87955
C         -0.64864       -3.42542        0.26446
H         -1.66972       -1.63704        0.05803
H          0.32615       -1.79000        2.26376
H         -0.82184       -0.47867        1.93161
H         -1.43668       -2.07776        2.45078
H          0.30077       -3.77883        0.66780
H         -1.48166       -3.92137        0.76743
H         -0.67951       -3.63425       -0.80510
H          0.03780       -1.53575       -0.06488
N         -3.31254       -1.30461       -0.54708
C         -3.13143       -0.79606       -1.91042
C         -3.91458       -0.30589        0.34287
H         -3.91616       -2.12106       -0.57933
H         -2.40391        0.01783       -1.88150
H         -2.73644       -1.59078       -2.54916
H         -4.06892       -0.42314       -2.34830
H         -3.23044        0.54017        0.43678
H         -4.87982        0.06430       -0.03238
H         -4.06736       -0.74352        1.33335
