26
2msa2a_74.log	Energy: -904634.5589538
S          2.52824       -0.24084       -0.04427
O          2.80278        0.80858       -1.05242
O          2.15511       -1.55390       -0.58981
O          1.51811        0.26058        0.96665
C          4.03674       -0.47216        0.88348
H          4.80205       -0.81842        0.18827
H          4.32240        0.48123        1.32789
H          3.85374       -1.22028        1.65504
S         -2.30434       -0.84419       -0.15711
O         -1.93417        0.43431       -0.75086
O         -3.27310       -1.69907       -0.81683
O         -2.92110       -0.45329        1.30001
H         -3.66808       -1.04244        1.47872
C         -0.84657       -1.74412        0.27624
H         -0.30473       -1.97184       -0.64430
H         -0.20974       -1.10916        0.89858
H         -1.15434       -2.65744        0.78536
N          0.36108        2.10310       -0.57213
H          1.18336        2.49210       -1.03180
H          0.73684        1.46564        0.18922
H         -0.33191        2.79414       -0.21170
H         -0.13229        1.48978       -1.22199
N         -2.00774        3.36101        0.40684
H         -2.50516        2.50105        0.18067
H         -2.49670        4.13095       -0.03770
H         -2.07339        3.49628        1.41068
