42
2msa2eda_53.log	Energy: -1072769.5916725
S          2.27854       -0.77884       -0.56513
O          1.66157       -1.81521       -1.43560
O          1.64347       -0.72601        0.77810
O          2.32592        0.56795       -1.19480
C          3.97241       -1.28408       -0.33326
H          3.97118       -2.26261        0.14729
H          4.44851       -1.33550       -1.31247
H          4.46661       -0.54599        0.29870
S         -2.79903        0.73815       -0.31847
O         -3.03252       -0.37875       -1.26758
O         -2.43643        2.02414       -0.93263
O         -1.79839        0.33535        0.73925
C         -4.34173        0.98010        0.54521
H         -4.61821        0.04432        1.03106
H         -4.20361        1.77220        1.28130
H         -5.09224        1.26711       -0.19157
H         -2.18772       -3.34871        0.48884
H         -1.34676       -4.05552       -0.90537
H         -0.38859       -4.90943        1.20212
H          0.80886       -3.98920        0.29903
H          0.67503       -2.22729        1.79644
H         -0.65013       -2.85554        2.58594
H         -1.70129       -1.63937       -1.11684
H         -0.88027       -1.35973        0.24006
C         -1.23164       -3.39694       -0.04055
C         -0.11389       -3.89765        0.88154
N         -0.93709       -2.03458       -0.53897
N          0.17392       -3.07880        2.04030
H         -0.01996       -1.99372       -1.03587
H          0.47383        2.91740        2.01110
H          1.64778        1.61155        1.71288
H          2.78446        3.83705        1.61238
H          2.81690        3.01870        0.04492
H          1.09388        5.27975        0.74889
H          2.03684        5.07360       -0.57482
H         -0.40830        1.34261        0.44114
H         -0.09888        2.77823       -0.35261
C          1.15532        2.48165        1.27492
C          2.15982        3.50914        0.76994
N          0.34500        1.99649        0.13727
N          1.44921        4.59212        0.09403
H          0.97195        1.49139       -0.52407
