38
2msa1ma1tma_43.log	Energy: -1003281.6577694
S          2.80245       -0.80075       -0.07798
O          2.69497       -1.71052        1.05507
O          3.16708        0.58938        0.16034
O          1.46922       -0.87315       -0.91500
H          0.95185        0.04256       -0.96672
C          3.96359       -1.50023       -1.23354
H          4.93224       -1.53459       -0.73380
H          3.63134       -2.50510       -1.49368
H          4.00365       -0.85875       -2.11348
S         -0.18996        2.03030        0.11245
O         -1.46585        2.73545       -0.02359
O          0.10815        1.17898       -1.09862
O         -0.06677        1.21357        1.35667
H         -0.73721       -0.23867        1.48032
C          1.12256        3.22619        0.20228
H          1.09840        3.81802       -0.71310
H          0.94090        3.85422        1.07465
H          2.06019        2.67647        0.29663
N         -1.29128       -1.13679        1.57523
H         -1.64862       -1.16571        2.52745
C         -0.47345       -2.33113        1.26160
H         -1.07785       -3.23087        1.38800
H         -0.12836       -2.24291        0.23209
H          0.40736       -2.36043        1.90223
H         -2.11617       -1.05322        0.88683
N         -3.27696       -0.88998       -0.32911
C         -2.53289       -0.88657       -1.59300
H         -1.78204       -0.09227       -1.57989
H         -2.02444       -1.84735       -1.71993
H         -3.20424       -0.73117       -2.45250
C         -4.23947       -1.98644       -0.28829
H         -3.72161       -2.94160       -0.41762
H         -4.75212       -1.99505        0.67834
H         -4.99957       -1.89482       -1.08119
C         -3.93742        0.40189       -0.11381
H         -4.44186        0.39635        0.85739
H         -3.19688        1.20639       -0.12235
H         -4.68888        0.60115       -0.89447
