43
2msa1eda1tma_17.log	Energy: -1062693.1565607
S         -2.71948       -0.72439       -0.33185
O         -3.18408        0.60671        0.11167
O         -2.84151       -1.79748        0.67349
O         -1.32364       -0.66644       -0.89126
C         -3.76030       -1.18787       -1.70924
H         -4.78396       -1.27115       -1.34284
H         -3.68700       -0.41407       -2.47369
H         -3.41330       -2.14587       -2.09756
S          2.77060        0.67170       -0.40962
O          2.91219        0.40045        1.03761
O          2.36430        2.06518       -0.72493
O          1.88140       -0.32609       -1.07980
C          4.38537        0.46509       -1.14301
H          5.05947        1.19121       -0.68818
H          4.72757       -0.55143       -0.94537
H          4.29674        0.63976       -2.21528
H         -1.13192        1.20011        1.29995
H          0.51469        1.89050        1.38666
H         -1.34978        3.36549        2.34336
H         -0.38446        4.15506        1.08604
H         -2.95807        2.83200        0.52662
H         -2.67043        4.46466        0.50410
H         -0.59525        0.87410       -0.81047
H         -1.07702        2.48075       -0.93464
C         -0.47887        1.99927        0.94778
C         -1.10740        3.35289        1.27174
N         -0.36663        1.85603       -0.52836
N         -2.25087        3.55143        0.38677
H          0.59540        2.09273       -0.83700
N          0.91016       -2.26761        0.58721
C          0.03815       -3.35008        0.06507
H         -0.97741       -2.96781       -0.02296
H          0.41846       -3.66156       -0.90834
H          0.06800       -4.18624        0.76769
C          2.30252       -2.74011        0.79466
H          2.69339       -3.10191       -0.15690
H          2.89848       -1.89747        1.14747
H          2.29360       -3.54737        1.53026
C          0.36079       -1.66317        1.83020
H          0.97632       -0.79644        2.07699
H         -0.67704       -1.38537        1.64732
H          0.40748       -2.40813        2.62795
H          0.97869       -1.50226       -0.12443
