42
2msa2eda_553.log	Energy: -1072743.3185538
S         -1.75431        2.04199       -0.31415
O         -0.60224        2.87238       -0.70577
O         -2.01087        1.96603        1.13796
O         -1.68292        0.65508       -0.90578
C         -3.19534        2.79057       -1.06169
H         -3.30013        3.79377       -0.64735
H         -3.04048        2.83626       -2.13988
H         -4.06792        2.18328       -0.81967
S          3.02364        0.72928        0.48135
O          4.04707        1.70128        0.81615
O          2.14366        0.21304        1.51989
O          3.79768       -0.57677       -0.12767
H          4.74628       -0.38593       -0.12234
C          2.05967        1.22519       -0.91075
H          1.34204        1.98960       -0.58998
H          2.74181        1.61512       -1.66652
H          1.52322        0.34143       -1.27561
H         -1.11404       -1.56645        3.00402
H         -1.69249        0.08219        2.62284
H         -3.57296       -1.46767        2.46708
H         -3.17375       -0.78738        0.88447
H         -2.50243       -3.50501        1.76950
H         -3.39213       -3.05326        0.47627
H          0.31770       -0.28943        1.45242
H         -0.17180       -1.72223        0.77944
C         -1.52432       -0.91882        2.22292
C         -2.82389       -1.47282        1.66251
N         -0.51658       -0.80206        1.14493
N         -2.60682       -2.78764        1.05913
H         -0.92590       -0.27233        0.33838
H          0.86941       -3.85926       -2.08806
H         -0.46336       -4.23844       -0.98013
H         -1.20767       -2.77261       -2.82354
H         -1.43196       -2.04590       -1.23456
H          0.47401       -1.21976       -3.25637
H         -0.45830       -0.32952       -2.22065
H          1.42319       -3.62597        0.30765
H          1.61394       -2.22721       -0.51326
C          0.19058       -3.43413       -1.33214
C         -0.67320       -2.34540       -1.96245
N          0.91989       -2.89264       -0.18009
N          0.11987       -1.16473       -2.30794
