38
2msa2dma_150.log	Energy: -1003280.1308067
S         -1.73111        1.03701       -1.08275
O         -1.64325        1.93134       -2.22386
O         -1.07508        1.50186        0.15813
O         -1.23499       -0.40723       -1.43176
H         -0.20886       -0.49371       -1.54480
C         -3.41717        0.67221       -0.68915
H         -3.88185        1.61550       -0.39967
H         -3.88837        0.27089       -1.58658
H         -3.41551       -0.05506        0.13398
S          2.14305       -0.98727       -0.57093
O          1.24042       -0.68012       -1.72584
O          1.40927       -1.44557        0.62119
O          3.05664        0.15664       -0.27844
H          2.15351        1.24010        0.59722
C          3.18755       -2.31470       -1.13340
H          3.88677       -2.55856       -0.33364
H          2.54952       -3.16779       -1.36476
H          3.71733       -1.97584       -2.02353
N         -2.79795       -1.61750        1.60792
C         -1.58651       -1.12236        2.25106
C         -2.54267       -2.79658        0.78875
H         -3.49166       -1.83844        2.31455
H         -0.84542       -0.88923        1.48201
H         -1.81216       -0.20463        2.80299
H         -1.12895       -1.85273        2.94024
H         -1.88131       -2.51579       -0.03568
H         -2.06384       -3.62061        1.34408
H         -3.48243       -3.16176        0.36428
N          1.44400        1.78174        1.15721
C          1.73527        3.22720        1.09723
C          1.38780        1.21060        2.52060
H          0.52674        1.60979        0.69418
H          2.71077        3.41753        1.54726
H          1.74262        3.53737        0.05231
H          0.96055        3.77494        1.63595
H          2.33482        1.40175        3.02792
H          0.56454        1.67139        3.06887
H          1.23012        0.13592        2.41978
