42
2msa2eda_407.log	Energy: -1072754.9480864
S          1.33679        1.57876        0.21179
O          0.91211        0.70374        1.34197
O          1.31414        0.90151       -1.09759
O          2.69492        2.16655        0.48313
H          3.67039        1.24079       -0.35872
C          0.18748        2.93247        0.15916
H         -0.79082        2.49340       -0.05274
H          0.20654        3.43324        1.12742
H          0.49964        3.60975       -0.63594
S         -3.35478        0.18988       -0.30066
O         -3.86033       -0.69478       -1.35580
O         -1.96561        0.67358       -0.50994
O         -3.48721       -0.40151        1.07978
H         -2.03070       -0.83654        1.51632
C         -4.40089        1.63959       -0.28494
H         -4.32195        2.11781       -1.26183
H         -5.42593        1.31811       -0.09891
H         -4.05826        2.31069        0.50317
H         -2.08879       -2.33186       -0.49005
H         -0.91541       -3.64857       -0.56651
H         -1.37450       -3.20302        1.73535
H          0.30727       -2.72146        1.38360
H         -0.91005       -1.13159        2.74953
H         -0.37311       -0.41344        1.37110
H         -0.25296       -1.99713       -2.07358
H         -0.29495       -0.80566       -0.99782
C         -1.03906       -2.59290       -0.30096
C         -0.74539       -2.49510        1.18998
N         -0.09452       -1.80449       -1.08871
N         -1.02896       -1.14155        1.73873
H          5.49478       -1.11370       -0.27098
H          4.97291       -0.04679        1.06213
H          3.77962       -2.29892        1.05041
H          2.67554       -0.92451        0.91866
H          3.26489       -2.84863       -1.15216
H          1.90794       -1.90474       -0.93359
H          4.99266        0.85907       -1.37533
H          3.56568       -0.03202       -1.47761
C          4.65434       -0.55622        0.15080
C          3.45462       -1.48447        0.39097
N          4.22376        0.46179       -0.84310
N          2.93640       -1.92655       -0.89442
