32
2msa2ma_222.log	Energy: -953949.1141429
S          2.15892       -0.22325       -0.30178
O          1.42481       -1.43415       -0.63809
O          2.94240        0.42843       -1.35389
O          3.11819       -0.51465        0.91842
H          4.11318       -0.31498        0.64700
C          1.02280        0.94919        0.39354
H          0.27545        1.17189       -0.37013
H          0.53249        0.49208        1.25412
H          1.58057        1.84198        0.67607
S         -2.31755       -0.65528        0.26120
O         -1.75142       -0.43771        1.58427
O         -2.10271        0.38798       -0.74958
O         -3.86825       -0.91867        0.37413
H         -4.40048       -0.12561       -0.08173
C         -1.72459       -2.20626       -0.36240
H         -0.64082       -2.11122       -0.46776
H         -1.98316       -2.97955        0.36091
H         -2.19778       -2.39293       -1.32603
N         -4.97982        1.11896       -0.73557
H         -4.27250        1.29971       -1.44514
C         -5.00796        2.21609        0.24277
H         -5.25310        3.18384       -0.20704
H         -5.74175        1.98605        1.01770
H         -4.02516        2.28548        0.71346
H         -5.87626        1.01487       -1.20017
N          5.50871        0.08931        0.13111
H          6.29345       -0.42493        0.51861
C          5.67511        1.53863        0.30762
H          6.59372        1.92643       -0.14559
H          4.81806        2.03533       -0.15147
H          5.68153        1.77015        1.37507
H          5.44210       -0.13573       -0.85865
