35
2msa1ma1dma_201.log	Energy: -978620.7057556
S         -2.94091       -0.39853       -0.31135
O         -4.06433       -1.11167       -0.88437
O         -3.01259        1.04502       -0.11700
O         -1.67247       -0.73694       -1.21144
H         -0.94119       -0.05776       -1.07206
C         -2.51305       -1.14605        1.24805
H         -3.34676       -0.96788        1.92863
H         -2.37474       -2.21495        1.08424
H         -1.60052       -0.66949        1.61431
S          0.61622        1.49186        0.48263
O          0.25373        0.60449        1.60051
O          0.33162        0.87055       -0.85510
O          2.03918        1.94854        0.51970
H          2.93419        0.89578       -0.34371
C         -0.39466        2.94967        0.58809
H         -1.43313        2.62873        0.48532
H         -0.21473        3.41380        1.55799
H         -0.10985        3.61945       -0.22321
N          3.40452        0.11704       -0.88819
H          4.41048        0.19415       -0.75663
C          3.03156        0.18101       -2.32009
H          3.42931       -0.69059       -2.84177
H          1.94325        0.20078       -2.37168
H          3.42977        1.09403       -2.76312
H          3.06913       -0.80856       -0.44776
N          2.47978       -2.20058        0.32094
C          1.09472       -2.45872       -0.09669
C          2.57491       -1.92755        1.76221
H          3.04342       -3.01817        0.10391
H          0.48956       -1.58122        0.13311
H          1.05380       -2.62821       -1.17515
H          0.66145       -3.32787        0.41712
H          1.99836       -1.02594        1.98880
H          2.18040       -2.75425        2.36875
H          3.62073       -1.76031        2.03537
