40
2msa1dma1eda_25.log	Energy: -1038037.3982293
S         -2.23147       -1.16402       -0.38150
O         -1.58820       -2.50095       -0.46462
O         -1.76199       -0.21868       -1.42692
O         -2.13074       -0.56482        0.97836
C         -3.96528       -1.44771       -0.69061
H         -4.48331       -0.48951       -0.63407
H         -4.06709       -1.88123       -1.68556
H         -4.33867       -2.13434        0.06930
S          2.84801        0.76199       -0.08667
O          3.46769       -0.12431        0.91137
O          2.23888        2.00197        0.47161
O          1.85067        0.04035       -0.94432
C          4.14043        1.30587       -1.18906
H          4.59977        0.42503       -1.63778
H          3.69701        1.94287       -1.95429
H          4.86982        1.86206       -0.59974
N          1.03189       -2.22238        0.30190
C          0.87652       -1.93776        1.74808
C          2.09302       -3.20156       -0.00264
H          0.10389       -2.51009       -0.07572
H          1.78289       -1.44513        2.10301
H          0.00333       -1.29549        1.87477
H          0.70876       -2.87771        2.27692
H          3.04051       -2.80067        0.36157
H          1.86676       -4.15086        0.48585
H          2.14270       -3.34205       -1.08253
H          1.28070       -1.32987       -0.19534
H         -0.86720        3.77293        0.53417
H         -0.95446        3.34012       -1.19399
H         -3.21211        3.75363       -0.18059
H         -3.05284        2.10933       -0.81295
H         -3.86337        2.66655        1.69040
H         -3.02335        1.28318        1.35331
H          0.55824        1.91026        0.18503
H         -0.81527        1.36838        0.98291
C         -1.21228        3.02357       -0.18096
C         -2.71308        2.79304       -0.02324
N         -0.47591        1.76844        0.10192
N         -2.99698        2.30049        1.32048
H         -0.68076        1.04798       -0.61727
