44
2msa2tma_59.log	Energy: -1052598.1423995
S         -3.00628       -0.46720        0.57575
O         -4.15066        0.17547        1.21692
O         -1.79593       -0.50383        1.47692
O         -2.62345        0.12963       -0.74345
H         -1.59390        1.31263       -0.62679
C         -3.40572       -2.16408        0.21888
H         -3.63245       -2.66055        1.16268
H         -4.27464       -2.17001       -0.43962
H         -2.54155       -2.61330       -0.27447
S          0.66009       -1.52720       -0.76638
O          0.77406       -0.22620       -1.43545
O         -0.33163       -2.46383       -1.27490
O          0.46347       -1.30053        0.77991
H         -0.50711       -1.00501        1.02694
C          2.26192       -2.28975       -0.75276
H          2.50933       -2.49606       -1.79515
H          2.98719       -1.59737       -0.30906
H          2.18931       -3.21816       -0.18658
N          4.16442        0.19403        0.52823
C          3.35345        0.39289        1.71853
H          2.29708        0.23905        1.48271
H          3.63005       -0.34157        2.48016
H          3.48274        1.40416        2.15125
C          5.58211        0.25568        0.83835
H          5.83262       -0.50267        1.58566
H          6.16782        0.05374       -0.06325
H          5.88581        1.24387        1.23443
C          3.80986        1.14200       -0.51475
H          4.41850        0.95747       -1.40508
H          2.76142        1.00722       -0.79499
H          3.96847        2.19230       -0.20020
N         -1.12947        2.26490       -0.48973
C         -0.54307        2.66783       -1.78882
H          0.19512        1.91878       -2.07373
H         -1.33709        2.70017       -2.53545
H         -0.08221        3.65356       -1.68601
C         -2.23644        3.15619       -0.06531
H         -2.99451        3.17006       -0.84813
H         -2.68089        2.75123        0.84494
H         -1.84543        4.16135        0.10884
C         -0.09813        2.13402        0.56881
H         -0.56816        1.71519        1.45932
H          0.66772        1.44871        0.20961
H          0.32832        3.11881        0.77534
