29
2msa1a1ma_99.log	Energy: -929297.9091709
S          1.51292       -0.99260        0.27184
O          1.38743       -2.46394        0.51764
O          1.14658       -0.15504        1.41956
O          0.72862       -0.64750       -0.97254
H         -0.42541        0.32733       -0.95355
C          3.21493       -0.67663       -0.11694
H          3.80836       -0.98491        0.74486
H          3.47944       -1.26363       -0.99672
H          3.32026        0.39949       -0.30122
S         -2.37348        0.55822        0.01066
O         -3.58309        1.24631       -0.38091
O         -1.24474        0.94099       -1.01481
O         -2.42825       -0.91151        0.13798
H         -1.51649       -2.21060       -0.41137
C         -1.77830        1.19826        1.55606
H         -1.68565        2.27932        1.44973
H         -2.51958        0.94583        2.31501
H         -0.81146        0.73337        1.76706
N         -0.88698       -2.98153       -0.73389
H         -1.34114       -3.88560       -0.64151
H          0.01769       -2.91597       -0.16743
H         -0.64208       -2.79645       -1.70461
N          3.06475        2.68147       -0.34881
H          3.40379        3.02795        0.54222
C          1.60436        2.77261       -0.41564
H          1.20461        3.79225       -0.31747
H          1.26066        2.36129       -1.36776
H          1.17768        2.15236        0.37645
H          3.49566        3.24862       -1.07094
