43
2msa1eda1tma_261.log	Energy: -1062667.7830521
S          0.88141       -1.03160        0.84760
O          0.98352        0.09338        1.77342
O          0.75620       -0.70149       -0.57431
O         -0.29420       -1.99063        1.27736
H         -1.20263       -1.54059        1.10198
C          2.26492       -2.11065        1.07928
H          3.14055       -1.53061        0.76038
H          2.31804       -2.37892        2.13415
H          2.12295       -2.99081        0.45248
S         -3.20507       -0.85974       -0.51772
O         -4.52928       -1.45705       -0.40500
O         -2.45818       -0.78059        0.79038
O         -3.19333        0.50346       -1.15160
H         -2.90379        1.62309       -0.16406
C         -2.21570       -1.88453       -1.58975
H         -2.18415       -2.88627       -1.15926
H         -2.70349       -1.90542       -2.56454
H         -1.21328       -1.45841       -1.65401
H         -1.25477        2.94810        1.98066
H         -1.30463        1.21444        1.55536
H          0.68980        2.36791        0.55214
H         -0.37519        1.68032       -0.66399
H         -0.07125        4.51975       -0.05076
H         -0.22728        3.78450       -1.50106
H         -3.43941        2.47903        1.20229
H         -2.62206        3.30222       -0.01522
C         -1.35331        2.22871        1.16243
C         -0.29697        2.46800        0.09086
N         -2.68277        2.42941        0.52450
N         -0.54726        3.76990       -0.54040
N          4.27928        0.00709       -0.48253
C          5.69731        0.13039       -0.19653
H          5.83916        0.54199        0.80724
H          6.17246       -0.85463       -0.23335
H          6.21808        0.79057       -0.91671
C          4.04844       -0.59368       -1.78664
H          4.52930       -1.57607       -1.83184
H          2.97400       -0.72576       -1.94098
H          4.45235        0.02382       -2.61153
C          3.60474        1.29087       -0.37434
H          2.53893        1.15673       -0.57492
H          3.71621        1.68487        0.64019
H          4.00943        2.03555       -1.08744
