42
2msa2eda_545.log	Energy: -1072744.0392986
S          1.34324        1.42019       -0.00091
O          1.55332        0.04427       -0.52546
O          0.30139        2.18572       -0.69431
O          2.67359        2.13367        0.05136
H          3.72479        1.19475       -0.52162
C          0.82994        1.25148        1.69834
H         -0.05142        0.60745        1.71489
H          1.64252        0.79114        2.26198
H          0.61401        2.24674        2.08794
S         -1.71259       -1.89095        0.05046
O         -1.09812       -3.20604        0.03022
O         -1.44333       -1.00622        1.18501
O         -3.27538       -2.09012       -0.08080
H         -3.76687       -1.17389       -0.10396
C         -1.30153       -1.02424       -1.44781
H         -0.23102       -0.81132       -1.41546
H         -1.56413       -1.66911       -2.28688
H         -1.85771       -0.08389       -1.47878
H          5.96407       -0.80086       -0.22359
H          5.46120        0.46896        0.92666
H          4.66014       -1.87740        1.53956
H          3.35330       -0.70440        1.36889
H          3.65846       -3.04957       -0.12371
H          2.51260       -1.87076       -0.30267
H          5.06138        0.88447       -1.55502
H          3.84519       -0.25493       -1.39499
C          5.10994       -0.26745        0.20085
C          4.11720       -1.26027        0.81730
N          4.41688        0.44759       -0.90135
N          3.50905       -2.05693       -0.24079
H         -5.14651        2.04324        0.53063
H         -4.51588        0.83376        1.66568
H         -2.89206        2.67790        1.24814
H         -2.26121        1.08794        0.80806
H         -3.14205        3.13897       -1.07223
H         -1.72138        2.32218       -0.99784
H         -5.54680       -0.06413       -0.42578
H         -4.25429        0.56576       -1.22716
C         -4.39059        1.25540        0.66400
C         -2.99066        1.85169        0.52868
N         -4.56663        0.18516       -0.33206
N         -2.72705        2.23836       -0.85605
