40
2msa1dma1eda_104.log	Energy: -1038026.9163864
S         -2.54185       -0.79454       -0.67413
O         -3.68351       -1.69112       -0.52694
O         -1.73681       -0.62217        0.58458
O         -2.88964        0.55950       -1.22223
H         -2.39643        1.81467       -0.52088
C         -1.42842       -1.50774       -1.87270
H         -1.23130       -2.53913       -1.57530
H         -1.93216       -1.49234       -2.83958
H         -0.49939       -0.93373       -1.89691
S          2.60700        0.16686       -0.63421
O          2.40821        1.57077       -1.03910
O          1.70265       -0.80192       -1.29493
O          2.57861       -0.01676        0.85824
H          1.36409       -1.05136        1.21731
C          4.27056       -0.25638       -1.13002
H          4.34456       -0.12084       -2.20929
H          4.96042        0.40992       -0.61179
H          4.46012       -1.29532       -0.85932
N          0.55793       -1.69945        1.43324
C          0.33748       -1.74930        2.88938
C          0.81149       -3.01321        0.80980
H         -0.29667       -1.27810        0.99082
H          1.21807       -2.17061        3.37742
H          0.17100       -0.73451        3.25162
H         -0.54128       -2.35979        3.10380
H          1.67291       -3.48136        1.29019
H         -0.07074       -3.64571        0.92832
H          1.02777       -2.83932       -0.24464
H         -1.78569        3.31346        1.99386
H         -2.12851        1.56646        1.76745
H          0.35900        2.06198        2.15603
H         -0.00563        1.21969        0.65075
H          0.81995        3.98872        0.89577
H          1.21986        2.83513       -0.21525
H         -2.99184        3.30226        0.02315
H         -1.38072        3.23163       -0.47070
C         -1.61372        2.43803        1.36116
C         -0.11798        2.17207        1.17492
N         -2.15420        2.72699        0.00554
N          0.45451        3.22305        0.34102
