43
2msa1eda1tma_196.log	Energy: -1062674.9678536
S          2.06729        0.12676       -1.20651
O          0.81020        0.08040       -2.00233
O          2.36750       -1.15463       -0.52765
O          2.10931        1.27974       -0.26570
H          1.37943        0.83968        1.19606
C          3.36163        0.40835       -2.39867
H          3.33961       -0.40930       -3.11916
H          3.16747        1.36135       -2.89074
H          4.31406        0.43244       -1.86897
S         -2.05275        1.67632       -0.40277
O         -2.64291        2.95918       -0.72955
O         -0.98104        1.63058        0.59498
O         -1.56190        0.97400       -1.72664
H         -0.58453        0.69901       -1.72800
C         -3.34392        0.57310        0.12506
H         -3.84453        1.05840        0.96460
H         -4.04100        0.44388       -0.70334
H         -2.90426       -0.37903        0.44142
H         -2.41539       -4.06173       -0.41057
H         -3.10256       -2.48879       -0.83726
H         -0.94918       -2.75260       -1.94750
H         -0.84808       -1.46216       -0.75967
H          0.24119       -4.14844       -0.40684
H          1.02250       -2.70365       -0.38214
H         -3.16257       -2.97255        1.58835
H         -1.52391       -2.90468        1.58446
C         -2.29293       -2.97342       -0.27868
C         -0.95607       -2.54446       -0.86809
N         -2.36215       -2.55717        1.12359
N          0.14937       -3.17232       -0.14305
N          1.29980        0.47810        2.18210
C          0.31536       -0.63595        2.20126
H         -0.65351       -0.25045        1.89138
H          0.63901       -1.41048        1.50381
H          0.26527       -1.03909        3.21619
C          2.66026       -0.00644        2.52371
H          2.93830       -0.76608        1.79219
H          3.35690        0.82970        2.46063
H          2.64904       -0.41815        3.53552
C          0.87679        1.61315        3.03643
H          1.61550        2.41046        2.94760
H         -0.08830        1.96838        2.67784
H          0.81171        1.27425        4.07315
