40
2msa1dma1eda_147.log	Energy: -1038021.5880467
S          1.29628       -2.03822       -0.38881
O          0.05227       -2.82921       -0.42447
O          1.69955       -1.55959        0.94395
O          1.21939       -0.89695       -1.38447
C          2.60216       -3.09209       -0.99170
H          3.52791       -2.51649       -1.00922
H          2.68787       -3.93720       -0.30820
H          2.33670       -3.43023       -1.99327
S          1.53434        2.17111        0.31964
O          0.10917        1.80333        0.41881
O          1.86396        3.57329        0.18742
O          2.17420        1.40899       -0.89789
H          1.80621        0.46172       -1.03692
C          2.35444        1.48162        1.73477
H          1.92361        1.95468        2.61798
H          2.18365        0.40215        1.72918
H          3.41526        1.71723        1.64837
N         -2.11084       -1.53826        1.09264
C         -3.48913       -1.93740        1.34882
C         -1.48594       -0.85593        2.22635
H         -1.53941       -2.34341        0.83441
H         -4.10004       -1.04688        1.53325
H         -3.89264       -2.45700        0.47570
H         -3.58399       -2.59701        2.22377
H         -1.96272        0.11925        2.37444
H         -1.57308       -1.43013        3.15978
H         -0.42662       -0.70021        2.00954
H         -2.20022        1.10492       -2.68803
H         -3.14214       -0.32559       -2.21987
H         -4.37431        1.65024       -1.51641
H         -3.79746        0.81497       -0.08582
H         -2.07683        2.50547        0.13654
H         -2.62171        3.26720       -1.21098
H         -0.75052       -0.52564       -1.61152
H         -0.87850        0.77097       -0.63284
C         -2.58058        0.53177       -1.83750
C         -3.47002        1.40868       -0.94809
N         -1.43316        0.01246       -1.06512
N         -2.88753        2.64209       -0.45878
H         -1.76395       -0.61825       -0.24718
