40
2msa1dma1eda_545.log	Energy: -1038006.8129472
S          0.80200        1.64935       -0.57473
O         -0.19293        2.58944       -1.07609
O          1.21272        0.54555       -1.44098
O          0.31798        1.06566        0.81675
H         -0.11922        0.13290        0.72704
C          2.23889        2.55124       -0.05864
H          2.56895        3.12344       -0.92714
H          1.95093        3.22118        0.75156
H          3.00854        1.82939        0.23750
S         -1.62690       -1.66667       -0.41865
O         -2.60278       -2.68572       -0.04083
O         -0.82555       -1.17346        0.76024
O         -2.22031       -0.48748       -1.13770
H         -2.90383        0.53800       -0.26628
C         -0.46111       -2.36009       -1.56693
H          0.08231       -3.15916       -1.06113
H         -1.02363       -2.74958       -2.41561
H          0.21488       -1.56159       -1.87539
N         -3.48592        1.14184        0.42044
C         -2.73126        2.35235        0.82417
C         -3.85723        0.25228        1.54913
H         -4.32391        1.41286       -0.09221
H         -1.82836        2.03203        1.34407
H         -2.42673        2.89522       -0.07001
H         -3.35358        2.97002        1.47473
H         -2.93757       -0.07006        2.03909
H         -4.49909        0.78999        2.24887
H         -4.36196       -0.62818        1.15028
H          4.89944       -1.94770        0.48000
H          5.18528       -0.63423        1.64213
H          3.26421       -1.97965        2.30069
H          2.77040       -0.31593        1.93226
H          1.34062       -2.06875        0.95981
H          1.96695       -1.12525       -0.18360
H          5.33512        0.26837       -0.52418
H          3.87424       -0.29534       -0.96147
C          4.50317       -0.99586        0.86470
C          3.13924       -1.25583        1.48788
N          4.41236        0.04297       -0.16754
N          2.21800       -1.82728        0.50855
