32
2msa1a1dma_37.log	Energy: -953968.0019018
S         -2.27616       -0.45185       -0.02655
O         -1.58549        0.49715       -0.89525
O         -2.40583       -0.04788        1.38164
O         -1.65000       -1.86754       -0.13117
H         -0.61032       -1.88198       -0.38336
C         -3.91129       -0.75935       -0.64761
H         -4.46432        0.17752       -0.57669
H         -3.82524       -1.08605       -1.68346
H         -4.37289       -1.52890       -0.02932
S          1.82732       -1.23753       -0.10711
O          2.14372        0.00975       -0.81896
O          0.71920       -2.02236       -0.75170
O          1.58565       -1.04555        1.34890
H          0.71337        0.33650        1.86173
C          3.24518       -2.30714       -0.24156
H          4.09371       -1.79759        0.21536
H          3.02355       -3.23755        0.28070
H          3.42884       -2.49004       -1.30026
N          0.11185        1.18475        1.96991
H          0.31373        1.65561        2.84617
H         -0.86948        0.86860        1.94425
H          0.32123        1.82473        1.09110
N          0.73036        2.54194       -0.27505
C          2.05802        3.14071       -0.15798
C         -0.27689        3.46173       -0.79634
H          0.80140        1.71432       -0.86882
H          2.03829        3.93430        0.59744
H          2.76798        2.36865        0.14515
H          2.40488        3.57824       -1.10462
H         -0.42316        4.28248       -0.08543
H          0.01486        3.89612       -1.76319
H         -1.21851        2.92416       -0.91890
