28
2msa1dma_59.log	Energy: -918451.7371028
S         -0.80330        1.04375       -0.13590
O         -2.02805        1.73655       -0.46044
O          0.42087        1.84359        0.04062
O         -0.54651       -0.01064       -1.30017
H          0.38851       -0.33761       -1.28256
C         -1.02862        0.03335        1.30168
H         -1.20935        0.71617        2.13370
H         -1.90361       -0.60628        1.11572
H         -0.11403       -0.53978        1.47026
S          2.81670       -0.46536        0.10731
O          2.02795       -0.81592       -1.08226
O          2.36968       -1.01227        1.37629
O          2.94768        1.11167        0.18763
H          2.02776        1.50305        0.15378
C          4.51247       -0.87873       -0.18932
H          4.82717       -0.39897       -1.11520
H          5.09927       -0.53131        0.66068
H          4.55985       -1.96468       -0.27524
N         -3.86960       -1.29688        0.40744
C         -3.77901       -1.41744       -1.04323
C         -4.72032       -0.18715        0.82037
H         -4.22538       -2.16284        0.79775
H         -3.32505       -0.50958       -1.45020
H         -3.13436       -2.26045       -1.30513
H         -4.75932       -1.55537       -1.52996
H         -4.26034        0.75146        0.49595
H         -5.73662       -0.23446        0.39433
H         -4.80197       -0.16932        1.91107
