32
2msa2ma_97.log	Energy: -953959.6695173
S          2.61836       -0.03898        0.09830
O          2.12644       -1.24251       -0.62993
O          1.77988        0.30804        1.26542
O          2.81662        1.12941       -0.81196
H          1.38759        1.90096       -0.97940
C          4.24018       -0.46941        0.69184
H          4.13485       -1.31118        1.37636
H          4.85353       -0.74304       -0.16655
H          4.65432        0.39861        1.20461
S         -1.38705       -1.26685       -0.24486
O         -2.64281       -1.95146       -0.48058
O         -1.18227        0.00715       -0.96083
O         -0.22744       -2.25732       -0.61370
H          0.68986       -1.81378       -0.62008
C         -1.18024       -0.95880        1.48906
H         -1.98025       -0.26372        1.76159
H         -1.29229       -1.91296        2.00477
H         -0.18473       -0.53428        1.64441
N          0.37696        2.21834       -0.93605
H          0.16065        2.79592       -1.74493
C          0.10175        2.91001        0.34613
H         -0.96969        3.08769        0.44029
H          0.45081        2.25317        1.14322
H          0.64970        3.85159        0.37641
H         -0.19438        1.34667       -0.98928
N         -4.10281        0.55512        0.88194
H         -4.16474       -0.35915        0.44112
C         -4.14380        1.60573       -0.13286
H         -5.07491        1.64319       -0.71714
H         -4.00744        2.58085        0.34666
H         -3.31508        1.44887       -0.82869
H         -4.88836        0.63811        1.51801
