40
2msa1dma1eda_577.log	Energy: -1037999.7563835
S         -0.88883       -2.15089        0.04240
O         -0.22034       -3.36678        0.47919
O         -0.52416       -1.60722       -1.26249
O         -0.67214       -1.00136        1.14546
H          0.30091       -0.78412        1.18994
C         -2.64516       -2.31538        0.16497
H         -2.92552       -3.08454       -0.55622
H         -2.88315       -2.63596        1.17929
H         -3.10399       -1.34718       -0.08490
S          2.86123       -0.25436        0.00491
O          1.85161       -0.24370        1.08641
O          4.21842        0.05275        0.42428
O          2.39199        0.71394       -1.13117
H          2.21044        1.70122       -0.73863
C          2.80001       -1.81145       -0.83692
H          3.00969       -2.58184       -0.09411
H          1.80108       -1.93857       -1.25739
H          3.56502       -1.79837       -1.61289
N         -3.65176        0.75557       -0.28217
C         -3.62556        1.11775        1.12416
C         -4.83558        1.23940       -0.96928
H         -2.80809        1.11474       -0.73061
H         -4.45361        0.62721        1.64997
H         -2.69159        0.76729        1.57419
H         -3.71968        2.20463        1.30227
H         -5.72737        0.74252       -0.56979
H         -4.98795        2.32892       -0.86682
H         -4.76598        1.00089       -2.03386
H         -0.58984        3.75773       -0.67519
H         -1.30052        3.04745        0.76130
H          0.81566        3.95831        1.38953
H          0.94595        2.18860        1.46576
H          1.90261        3.76756       -0.82390
H          2.84623        3.21052        0.38662
H         -0.10076        1.55430       -1.47859
H         -0.62472        0.87214       -0.09921
C         -0.49548        2.91998        0.02842
C          0.82768        3.04006        0.78840
N         -0.73445        1.68533       -0.69835
N          1.98739        3.02874       -0.12887
