32
2msa2ma_226.log	Energy: -953949.0909753
S         -2.41524        0.95278        0.13724
O         -1.89300        0.97103        1.49507
O         -3.83114        1.26691       -0.06824
O         -2.12547       -0.45946       -0.51357
H         -3.03622       -0.91655       -0.80178
C         -1.42148        2.03008       -0.86378
H         -1.53129        3.03314       -0.44933
H         -0.38274        1.69613       -0.80604
H         -1.79606        1.99027       -1.88641
S          2.12198       -0.11800        0.39096
O          1.58684        0.81453       -0.59504
O          3.06419        0.41059        1.37882
O          2.80561       -1.33917       -0.34419
H          3.84818       -1.19784       -0.33468
C          0.77242       -0.92413        1.20899
H          0.19543       -0.15585        1.72733
H          0.14470       -1.39286        0.45072
H          1.18056       -1.65576        1.90553
N         -4.43419       -1.44274       -1.07701
H         -4.92232       -0.58147       -1.31351
C         -4.98352       -2.00200        0.16774
H         -6.04351       -2.26382        0.08593
H         -4.41573       -2.89350        0.44194
H         -4.86371       -1.25913        0.95882
H         -4.53854       -2.09046       -1.85161
N          5.32114       -0.75092       -0.22930
H          5.32923       -0.36073        0.71112
C          5.56609        0.30789       -1.22046
H          6.54066        0.79221       -1.09843
H          5.50257       -0.12044       -2.22281
H          4.78298        1.06294       -1.12377
H          6.03198       -1.47367       -0.27776
