38
2msa1ma1tma_11.log	Energy: -1003294.0028448
S         -2.06474       -1.21887       -0.60281
O         -3.25990       -2.05562       -0.62758
O         -1.36130       -1.20868        0.72962
O         -2.28534        0.19070       -1.05497
H         -1.64119        1.29795       -0.10846
C         -0.89178       -1.89989       -1.76649
H         -0.71243       -2.94346       -1.50007
H         -1.34668       -1.84623       -2.75595
H          0.03354       -1.31909       -1.73616
S          2.44138        0.50882       -0.41264
O          1.52510        1.52765       -0.95486
O          2.26341       -0.84249       -1.01890
O          2.40870        0.43631        1.08181
H          1.60088       -1.16109        1.60046
C          4.09593        1.02328       -0.84403
H          4.15675        1.08638       -1.93077
H          4.27613        1.99868       -0.39153
H          4.79994        0.28449       -0.46081
N          1.13977       -1.99447        1.19327
H          0.12834       -1.73353        1.02623
C          1.28866       -3.22808        1.98198
H          0.80669       -4.05250        1.45635
H          2.34656       -3.45002        2.12418
H          0.80790       -3.09476        2.95103
H          1.58505       -2.02102        0.25899
N         -1.54668        2.13724        0.53810
C         -1.02347        3.26342       -0.27267
H         -0.03181        2.98726       -0.63322
H         -1.69761        3.42445       -1.11487
H         -0.97814        4.16121        0.34940
C         -2.92760        2.38270        1.01424
H         -3.57005        2.56233        0.15230
H         -3.27752        1.49226        1.53699
H         -2.93250        3.24639        1.68365
C         -0.63816        1.78592        1.65731
H         -1.01273        0.87161        2.11790
H          0.36325        1.61290        1.26335
H         -0.62908        2.60999        2.37569
