42
2msa2eda_208.log	Energy: -1072757.2281985
S          1.27570       -1.75319       -0.78558
O          2.34922       -0.85169       -1.23422
O         -0.07367       -1.31695       -1.28634
O          1.25201       -1.96426        0.68499
C          1.56758       -3.34594       -1.52929
H          1.55713       -3.21781       -2.61176
H          2.54080       -3.70267       -1.19131
H          0.77565       -4.02358       -1.21015
S         -2.83599       -0.22306        0.56152
O         -3.11182        0.73123       -0.50415
O         -2.06503        0.26898        1.70942
O         -2.20547       -1.54047        0.00037
H         -1.30388       -1.42483       -0.51113
C         -4.36807       -0.87912        1.17481
H         -4.91100       -0.04393        1.61801
H         -4.92011       -1.30021        0.33527
H         -4.14440       -1.63838        1.92336
H          1.74449        2.10400        2.69462
H          1.41081        0.58421        3.56015
H          3.80684        0.82146        3.02969
H          3.09869       -0.60643        2.26052
H          4.58672        0.98243        0.90379
H          3.22045        0.46044        0.19061
H         -0.22997        0.74612        1.85782
H          0.88315        1.29975        0.70448
C          1.73470        1.01402        2.60862
C          3.12163        0.49308        2.24201
N          0.74923        0.65106        1.56386
N          3.57602        1.03078        0.96055
H          0.87186       -0.34421        1.29119
H          1.40144        3.03591       -2.44269
H          1.65582        1.32282       -2.02450
H         -0.52594        1.67877       -3.17002
H         -0.69002        0.99764       -1.56170
H         -1.45542        3.66831       -2.38355
H         -2.16155        2.62929       -1.32300
H          2.15036        2.77337       -0.14596
H          0.57698        3.32430       -0.18709
C          1.05189        2.20819       -1.80674
C         -0.41267        1.90555       -2.10089
N          1.19015        2.53407       -0.38136
N         -1.27350        2.99892       -1.64493
