37
2msa1ma1eda_52.log	Energy: -1013374.5220392
S          2.86293       -0.57557       -0.12748
O          4.27217       -0.60417        0.24293
O          2.61350       -0.19116       -1.55888
O          2.00679        0.26727        0.77406
H         -0.27933        0.38511       -1.21133
C          2.21256       -2.23305        0.03126
H          2.75593       -2.87339       -0.66434
H          2.38098       -2.56387        1.05712
H          1.14635       -2.20795       -0.20380
S         -2.39048       -1.00352       -0.20610
O         -0.93143       -1.04592       -0.54554
O         -3.06726        0.11650       -0.89721
O         -2.58999       -1.02011        1.26463
H         -1.09072       -0.21698        1.93958
C         -3.09639       -2.51382       -0.83412
H         -2.93821       -2.54303       -1.91220
H         -2.59891       -3.35187       -0.34595
H         -4.16135       -2.50843       -0.60085
N         -0.35241        0.50715        2.01056
H          0.50290        0.19276        1.49513
C         -0.01787        0.86413        3.40132
H          0.76190        1.62549        3.39515
H         -0.90693        1.24128        3.90751
H          0.35250       -0.01966        3.92016
H         -0.72937        1.32007        1.47040
H         -1.34677        3.25731       -1.76299
H         -0.50426        4.10405       -0.46789
H          1.14542        2.96538       -1.78458
H          1.07745        2.18210       -0.20055
H         -0.07696        1.12349       -2.68911
H          1.27245        0.54052       -1.79510
H         -2.19977        3.11615        0.65080
H         -2.20521        1.73840       -0.21499
C         -0.78469        3.10987       -0.82859
C          0.51485        2.37260       -1.11704
N         -1.58688        2.44316        0.20215
N          0.32240        1.04696       -1.75582
