29
2msa1a1ma_66.log	Energy: -929302.6218988
S         -2.61104       -0.35258       -0.25570
O         -3.69028       -1.26262       -0.57616
O         -2.55650        0.97745       -0.84290
O         -1.24203       -1.11000       -0.59666
H         -0.49364       -0.44387       -0.82918
C         -2.51223       -0.17893        1.51558
H         -3.39443        0.38105        1.82888
H         -2.52506       -1.17399        1.96211
H         -1.59389        0.36225        1.75438
S          1.15795        1.30263        0.10581
O          0.78634        0.35146       -1.00913
O          2.59068        1.59397        0.12263
O          0.62048        0.77376        1.40080
H          0.84437       -0.92792        1.45943
C          0.26560        2.80519       -0.22319
H          0.44759        3.49158        0.60413
H          0.64946        3.21777       -1.15647
H         -0.79353        2.55913       -0.31831
N          0.88343       -1.93420        1.16043
H         -0.00784       -2.11658        0.68749
H          1.01502       -2.55975        1.94918
H          1.69329       -2.01724        0.41545
N          2.79115       -1.84973       -0.75507
H          2.90481       -2.63603       -1.38770
C          4.09644       -1.38628       -0.25461
H          4.81818       -1.20457       -1.05789
H          3.94675       -0.44729        0.28235
H          4.51302       -2.13207        0.42815
H          2.33512       -1.09773       -1.27667
