32
2msa1a1dma_68.log	Energy: -953968.0533074
S          2.52021        0.05626       -0.20883
O          1.79204        0.49884       -1.40980
O          2.41699       -1.41580        0.04310
O          2.16886        0.83078        1.02052
H          1.26416       -0.33761        2.30703
C          4.25162        0.36802       -0.51489
H          4.54416       -0.19828       -1.39941
H          4.37923        1.43741       -0.68456
H          4.82192        0.04509        0.35619
S         -2.07395       -1.11021       -0.25111
O         -2.99314       -2.18331        0.10819
O         -1.38242       -0.47395        0.92901
O         -2.68638       -0.01354       -1.07648
H         -2.16915        1.35916       -0.67992
C         -0.78168       -1.79521       -1.27144
H         -0.29089       -2.59922       -0.72153
H         -1.25476       -2.19183       -2.17042
H         -0.05849       -1.01371       -1.51471
N          0.81338       -1.25617        2.17930
H          1.41671       -1.67949        1.43478
H         -0.14062       -1.07295        1.75647
H          0.77029       -1.80442        3.03156
N         -1.88083        2.33995       -0.32706
C         -0.40014        2.43034       -0.24754
C         -2.56228        2.54947        0.97078
H         -2.22933        3.00599       -1.01470
H         -0.04547        1.72731        0.50466
H          0.03790        2.13744       -1.20127
H         -0.11130        3.44916        0.01809
H         -2.25199        1.73886        1.63078
H         -2.28289        3.51968        1.38570
H         -3.64023        2.49430        0.81681
