40
2msa1dma1eda_364.log	Energy: -1038016.7563367
S         -0.99235       -2.32299       -0.14657
O         -1.22190       -3.67979        0.29530
O         -0.03075       -1.63404        0.89311
O         -2.16487       -1.45343       -0.35557
H         -2.61204        0.10892        0.18477
C         -0.05323       -2.31730       -1.65374
H          0.85432       -2.89603       -1.47986
H         -0.67131       -2.78694       -2.41985
H          0.17777       -1.27862       -1.90681
S          0.25666        1.69459       -0.57471
O         -0.98284        2.49817       -0.78104
O          0.64245        0.86223       -1.72231
O          0.12159        0.89250        0.69897
H          0.03234       -0.62289        0.76190
C          1.57177        2.85155       -0.27656
H          1.60091        3.53943       -1.12238
H          1.35699        3.38606        0.64890
H          2.50032        2.27601       -0.21178
N         -2.94126        1.06915        0.40944
C         -2.86703        1.27438        1.87177
C         -4.28029        1.26642       -0.17995
H         -2.24309        1.70265       -0.06110
H         -3.51232        0.55149        2.37320
H         -1.82896        1.13374        2.17290
H         -3.18817        2.29049        2.10589
H         -4.98121        0.55659        0.26183
H         -4.61144        2.28804        0.01190
H         -4.21372        1.09678       -1.25445
H          4.65343       -0.90697        1.42893
H          3.11532       -1.69304        1.75250
H          3.56044       -1.75703       -0.63954
H          2.14601       -0.75009       -0.31261
H          4.78534        0.25527       -1.04104
H          3.33561        0.51187       -1.76620
H          3.56570        1.19430        1.63577
H          2.12970        0.49429        1.93666
C          3.56803       -0.80467        1.29848
C          3.23109       -0.80236       -0.19599
N          3.13375        0.37045        2.04243
N          3.79148        0.36994       -0.87059
