43
2msa1eda1tma_11.log	Energy: -1062693.0298477
S         -2.89237       -0.60410       -0.60208
O         -2.23086       -1.51708       -1.56350
O         -3.39293        0.65911       -1.16927
O         -2.00655       -0.35828        0.59377
H         -1.36668        1.15634        0.56171
C         -4.30589       -1.48961        0.03361
H         -4.96687       -1.70781       -0.80558
H         -3.95727       -2.41283        0.49659
H         -4.80997       -0.85638        0.76384
S          3.07246        0.25404       -0.50172
O          3.49841        0.24128        0.91346
O          1.83765        1.05468       -0.72703
O          2.94371       -1.10995       -1.09477
H          1.24484       -1.57608       -0.93449
C          4.37824        1.05961       -1.41547
H          4.50214        2.06501       -1.01213
H          5.29165        0.47959       -1.28174
H          4.09403        1.09501       -2.46731
H         -0.58317       -2.93667        0.96529
H          0.68181       -3.74034       -0.00252
H          1.45131       -3.24577        2.36116
H          2.43858       -2.44472        1.13213
H          0.76366       -1.16763        3.06549
H          1.98950       -0.54761        2.11857
H         -0.47774       -1.77656       -1.07343
H          0.19162       -0.86130        0.12599
C          0.41241       -2.82498        0.52865
C          1.44826       -2.46027        1.59652
N          0.33701       -1.70918       -0.43949
N          1.15837       -1.13505        2.13553
N         -1.14119        2.18554        0.61803
C         -2.37264        2.80998        1.15671
H         -3.19297        2.57911        0.47584
H         -2.57855        2.38487        2.13971
H         -2.22286        3.88899        1.23705
C          0.02302        2.34531        1.52614
H         -0.21458        1.87239        2.47979
H          0.88756        1.86155        1.06666
H          0.21341        3.41166        1.67045
C         -0.84886        2.66282       -0.76132
H          0.05437        2.16351       -1.11319
H         -1.70301        2.40808       -1.38983
H         -0.69426        3.74414       -0.72805
