42
2msa2eda_512.log	Energy: -1072747.1009738
S          2.63732       -1.01609        0.63472
O          3.99778       -1.51015        0.83129
O          2.09051       -1.18746       -0.73473
O          2.46910        0.43157        1.07092
H          2.51265        1.45491        0.04276
C          1.56104       -1.90791        1.74674
H          1.56505       -2.95687        1.44775
H          1.96173       -1.79888        2.75490
H          0.55207       -1.49384        1.69055
S         -2.04822        0.81713        1.33120
O         -1.84893       -0.65747        1.49646
O         -3.14068        1.37428        2.12597
O         -2.18282        1.12159       -0.14800
H         -3.12905       -0.18427       -0.72545
C         -0.53155        1.58851        1.85304
H         -0.43627        1.42006        2.92635
H          0.31745        1.13736        1.33541
H         -0.60960        2.65632        1.64408
H          2.40695        2.36427       -2.83609
H          2.67744        0.71381       -2.17915
H          0.31276        1.04281       -3.00422
H          0.43684        0.59980       -1.29974
H         -0.28730        3.22915       -2.33458
H         -0.92595        2.35196       -1.08953
H          3.40020        2.70893       -0.74170
H          1.74361        2.90953       -0.51881
C          2.13582        1.65208       -2.05101
C          0.62921        1.40349       -2.01693
N          2.49854        2.23984       -0.73499
N         -0.06063        2.60894       -1.56525
H         -3.15526       -3.01786       -1.70326
H         -3.54720       -1.61485       -2.74143
H         -1.17860       -2.27016       -2.98841
H         -1.32883       -0.64283       -2.31216
H          0.28085       -2.17524       -1.14440
H         -0.85011       -1.59938       -0.14571
H         -4.43522       -1.25386       -0.54826
H         -2.95634       -1.49638        0.18657
C         -2.96279       -1.95859       -1.88461
C         -1.47482       -1.71421       -2.09349
N         -3.42886       -1.19727       -0.68995
N         -0.71972       -2.20296       -0.95667
