34
2msa1a1eda_332.log	Energy: -988688.7655926
S         -2.47133       -0.42544       -0.20584
O         -3.74739       -1.12628       -0.25843
O         -1.34817       -1.26331       -0.79493
O         -2.05827        0.01346        1.16991
H         -1.26338       -1.21416        1.80104
C         -2.56389        1.04771       -1.19151
H         -2.84229        0.74292       -2.20130
H         -3.34239        1.67739       -0.75846
H         -1.59299        1.55981       -1.18719
S          2.00982       -1.20501       -0.35713
O          2.16350       -2.57137       -0.82747
O          1.75105       -1.06443        1.09871
O          0.93201       -0.42307       -1.15916
H         -0.06852       -0.76794       -1.00503
C          3.44129       -0.23547       -0.74301
H          4.28263       -0.68226       -0.21229
H          3.59616       -0.28438       -1.82073
H          3.24368        0.78380       -0.40156
N         -0.64529       -2.07640        1.95164
H         -0.92660       -2.75939        1.24692
H         -0.73506       -2.46632        2.88511
H          0.33612       -1.78552        1.74274
H          0.90103        4.33627        0.26100
H         -0.81966        3.92007        0.29051
H          0.19494        2.93929        2.23053
H         -0.20745        1.62744        1.11874
H          2.46175        2.67965        1.66768
H          1.93834        1.12134        1.65620
H          0.33578        3.51902       -1.89983
H          1.07717        2.24679       -1.17352
C          0.18555        3.50284        0.15569
C          0.45293        2.48876        1.26099
N          0.25586        2.84529       -1.14663
N          1.84340        2.02402        1.20140
