34
2msa1a1eda_29.log	Energy: -988711.2193686
S         -2.10306       -1.35796        0.06614
O         -1.89405       -2.79135       -0.18251
O         -3.47051       -0.83591       -0.02882
O         -1.14381       -0.55128       -0.80856
C         -1.55057       -1.03824        1.74124
H         -2.10326       -1.70657        2.40233
H         -0.47625       -1.22190        1.80813
H         -1.78219        0.00030        1.98588
S          2.86083        0.18079        0.07415
O          3.02243       -0.39337       -1.28002
O          1.94911       -0.64863        0.92189
O          2.46362        1.61515        0.07608
C          4.46426        0.13332        0.85281
H          4.79733       -0.90403        0.88905
H          5.14551        0.73600        0.25192
H          4.36879        0.54490        1.85759
N          0.92088       -2.22956       -1.07476
H          1.30303       -2.01289       -0.13511
H          1.66748       -1.97579       -1.72660
H          0.58976       -3.18657       -1.16020
H          0.10099       -1.57196       -1.17208
H         -0.80836        3.81399       -0.21926
H         -0.55177        2.85305       -1.69071
H         -3.02031        3.27782       -1.18387
H         -2.58497        1.57115       -1.32596
H         -3.47330        2.90511        1.04760
H         -3.48346        1.30520        0.63696
H          0.79423        1.90250        0.10667
H         -0.60884        1.85532        1.06582
C         -0.97580        2.83905       -0.68480
C         -2.46110        2.46403       -0.70747
N         -0.24963        1.82218        0.11041
N         -2.92456        2.15563        0.64560
H         -0.50072        0.86561       -0.24655
