37
2msa1ma1eda_84.log	Energy: -1013366.3551541
S          1.53950        1.62942       -0.29190
O          2.83602        2.28340       -0.42257
O          1.42096        0.80525        0.97019
O          1.14100        0.79256       -1.46761
H          0.90236       -0.75380       -0.98703
C          0.27945        2.88732       -0.16169
H          0.50562        3.50684        0.70756
H          0.32238        3.49007       -1.06956
H         -0.69732        2.40367       -0.07217
S         -2.72690       -0.34185       -0.46067
O         -4.12013       -0.76591       -0.53028
O         -1.77239       -1.41542       -0.03695
O         -2.50566        0.88828        0.38375
H         -1.61530        0.71384        1.63676
C         -2.21672        0.15243       -2.10043
H         -2.33778       -0.70511       -2.76400
H         -2.86853        0.96606       -2.42036
H         -1.17525        0.48116       -2.06475
N         -0.87387        0.57564        2.40159
H          0.04684        0.67407        1.90649
C         -1.02321       -0.75838        3.02614
H         -0.16757       -0.96752        3.66892
H         -1.94595       -0.78413        3.60607
H         -1.09833       -1.49025        2.22140
H         -0.95180        1.32457        3.08537
H          1.75787       -3.57904       -0.53301
H          1.87585       -2.67554       -2.06765
H          4.04141       -2.71207       -0.71559
H          3.45681       -1.08547       -1.07424
H          3.98583       -2.04251        1.43158
H          3.02947       -0.73602        1.12445
H         -0.14289       -2.01258       -0.61973
H          0.98660       -1.50915        0.47141
C          1.91875       -2.59512       -0.97953
C          3.24451       -1.99546       -0.49967
N          0.83539       -1.69976       -0.52517
N          3.16319       -1.72708        0.93615
