28
2msa1dma_12.log	Energy: -918471.9888602
S         -2.25384       -0.24747        0.01033
O         -1.80749       -0.30716       -1.37876
O         -2.22169        1.08142        0.63768
O         -1.47854       -1.28457        0.89028
H         -0.46192       -1.03331        0.92071
C         -3.89638       -0.90160        0.14805
H         -3.89836       -1.90931       -0.26628
H         -4.17772       -0.90463        1.20054
H         -4.54767       -0.24445       -0.42873
S          2.08778       -0.92503        0.08528
O          2.97894       -1.72953        0.90678
O          2.65949        0.25273       -0.59240
O          0.85297       -0.44201        0.87445
H          0.62951        1.11377        0.36675
C          1.39067       -1.98317       -1.17498
H          2.20231       -2.28534       -1.83762
H          0.95478       -2.85633       -0.68812
H          0.62620       -1.42621       -1.71933
N          0.38733        2.11102        0.12480
C          0.41255        2.27563       -1.34823
C          1.32749        2.98812        0.85318
H         -0.57878        2.20724        0.46003
H          1.41297        2.01964       -1.69588
H         -0.31794        1.58830       -1.77727
H          0.15803        3.30750       -1.59709
H          2.33825        2.73146        0.53386
H          1.10598        4.03331        0.63083
H          1.22456        2.80037        1.92190
