32
2msa1a1dma_82.log	Energy: -953959.2672210
S         -1.72104       -1.39882        0.08920
O         -2.81771       -0.61174        0.70764
O         -0.80452       -2.01865        1.05992
O         -1.00052       -0.59761       -0.95707
C         -2.50784       -2.73404       -0.80207
H         -3.05590       -3.34014       -0.08018
H         -3.18683       -2.30899       -1.54166
H         -1.73278       -3.32713       -1.28825
S          2.90688       -0.05779        0.09184
O          2.01253        1.08579        0.08150
O          3.79728       -0.27848        1.21910
O          3.85400        0.09317       -1.22795
H          4.77097       -0.02773       -0.94347
C          1.99810       -1.52225       -0.29576
H          1.44591       -1.34148       -1.21832
H          2.70824       -2.34388       -0.38728
H          1.27627       -1.69496        0.50914
N         -3.84881        1.92787       -0.25788
H         -4.44813        2.41690        0.39861
H         -3.76923        0.95102        0.04665
H         -4.30873        1.94270       -1.16209
N         -1.03326        1.99468       -0.07761
C         -0.30356        3.02572       -0.83938
C         -0.75909        1.99711        1.37724
H         -2.07203        2.10975       -0.21094
H          0.76718        2.87732       -0.70337
H         -0.55789        2.92627       -1.89531
H         -0.59981        4.01386       -0.48113
H          0.30585        1.83116        1.53630
H         -1.06437        2.95855        1.79577
H         -1.33789        1.18894        1.82727
H         -0.83393        1.03660       -0.45523
