35
2msa1ma1dma_273.log	Energy: -978615.6783254
S          0.93854       -0.97344       -0.57807
O         -0.27866       -1.84186       -0.73859
O          0.94382       -0.24934        0.70346
O          1.10465       -0.05924       -1.75030
H          0.17693        1.24640       -1.56954
C          2.32664       -2.07679       -0.62173
H          2.20168       -2.79804        0.18669
H          2.33028       -2.57850       -1.58944
H          3.22763       -1.47010       -0.47389
S         -2.98909       -0.01136        0.42595
O         -2.83741        0.56484       -0.92717
O         -2.51421        0.82661        1.51640
O         -2.39214       -1.44249        0.46761
H         -1.45977       -1.56383       -0.03279
C         -4.70776       -0.38023        0.67323
H         -5.04638       -1.02086       -0.14017
H         -4.81045       -0.87939        1.63651
H         -5.24192        0.57016        0.67326
N         -0.51818        2.01502       -1.32851
H         -0.57351        2.67198       -2.10302
C         -0.14210        2.67886       -0.05429
H         -0.90925        3.40251        0.21934
H         -0.06482        1.90577        0.71020
H          0.82289        3.16958       -0.18206
H         -1.43977        1.53688       -1.23007
N          4.53604        0.17554        0.46717
C          4.23811       -0.14599        1.85673
C          3.94456        1.43801        0.04778
H          5.53991        0.20274        0.32643
H          3.15700       -0.28044        1.96400
H          4.72983       -1.08428        2.12969
H          4.55872        0.63528        2.56766
H          2.85745        1.35725        0.14069
H          4.27959        2.30103        0.65085
H          4.18243        1.62731       -1.00259
