44
2msa2tma_05.log	Energy: -1052610.6119979
S          1.37911        1.42241       -0.98404
O          1.31194        2.87280       -1.19511
O          0.67883        0.96371        0.25084
O          2.77875        0.86264       -0.99390
H          2.82329       -0.25888        0.06163
C          0.55720        0.63505       -2.35652
H         -0.47732        0.97858       -2.38603
H          1.08805        0.91421       -3.26725
H          0.55944       -0.44484       -2.19838
S         -1.78469       -1.62499       -0.47324
O         -0.66431       -2.25138       -1.19596
O         -2.44418       -0.50730       -1.19395
O         -1.43317       -1.21630        0.92493
H         -1.48529        0.65925        0.73669
C         -3.03151       -2.89838       -0.29380
H         -3.33519       -3.21627       -1.29180
H         -2.59572       -3.73299        0.25614
H         -3.88096       -2.48212        0.24914
N          2.94236       -1.02203        0.81192
C          1.82200       -1.98745        0.66846
H          0.87894       -1.47534        0.86341
H          1.79761       -2.36183       -0.35475
H          1.97175       -2.81078        1.37259
C          4.25628       -1.64709        0.55495
H          4.23665       -2.10835       -0.43280
H          5.02727       -0.87593        0.57736
H          4.45846       -2.40546        1.31556
C          2.89693       -0.33110        2.11943
H          3.70666        0.39870        2.16204
H          1.93895        0.18435        2.18335
H          3.00366       -1.06580        2.92187
N         -2.00380        1.52282        1.01246
C         -2.01693        2.45898       -0.14130
H         -0.99886        2.79296       -0.34260
H         -2.41381        1.91507       -0.99846
H         -2.65490        3.30986        0.11087
C         -3.37680        1.08408        1.36244
H         -3.82238        0.64531        0.47003
H         -3.30905        0.32613        2.14201
H         -3.94849        1.94901        1.70688
C         -1.29126        2.09389        2.17944
H         -1.27483        1.34420        2.97159
H         -0.27411        2.32622        1.86673
H         -1.81876        2.98917        2.51660
