40
2msa1dma1eda_228.log	Energy: -1038021.8729799
S          0.56698       -1.78630       -1.02531
O         -0.44179       -2.39415       -0.14349
O          1.92797       -1.70003       -0.46756
O          0.12332       -0.41972       -1.51840
C          0.65130       -2.79249       -2.49639
H          0.97460       -3.78990       -2.19700
H         -0.34219       -2.82955       -2.94365
H          1.36993       -2.34408       -3.18243
S         -2.67896        0.80027        0.08978
O         -3.84626        1.65662        0.04945
O         -1.47284        1.27169        0.77421
O         -2.31130        0.43648       -1.40781
H         -1.37731        0.05376       -1.46881
C         -3.12006       -0.77654        0.78440
H         -3.34275       -0.61376        1.83986
H         -4.00343       -1.13766        0.25773
H         -2.27495       -1.45713        0.65206
N          1.31319       -0.01935        2.83694
C          2.48254       -0.90103        2.76966
C          0.05439       -0.77053        2.90537
H          1.38592        0.57509        3.65726
H          2.44877       -1.45488        1.82697
H          3.39702       -0.30058        2.78835
H          2.51631       -1.61958        3.60161
H         -0.04875       -1.37666        2.00093
H          0.01567       -1.43828        3.77856
H         -0.78028       -0.06729        2.94032
H          3.24267        1.95507        0.60147
H          3.00786        0.43139       -0.30012
H          3.59667        2.29494       -1.86828
H          1.96947        1.67135       -2.16336
H          2.62579        4.22482       -0.90313
H          1.49274        3.88880       -2.03711
H          1.23683        0.88076        1.35596
H          0.80313        2.24189        0.40355
C          2.62830        1.44366       -0.14637
C          2.58319        2.23111       -1.45068
N          1.25646        1.32477        0.38688
N          1.95535        3.52996       -1.21144
H          0.69216        0.72807       -0.24617
