43
2msa1eda1tma_224.log	Energy: -1062674.1404823
S          1.53869       -0.94446       -0.71989
O          1.68157        0.26576       -1.55863
O          1.02333       -0.65339        0.64252
O          2.83310       -1.71857       -0.62374
H          3.50148       -1.18660        0.66427
C          0.38565       -2.02725       -1.52923
H         -0.59733       -1.54617       -1.53115
H          0.74726       -2.20334       -2.54249
H          0.34994       -2.96079       -0.96685
S         -3.14655       -1.05857        0.38724
O         -2.58267       -0.74578       -0.95249
O         -4.47243       -1.67318        0.38812
O         -3.06437        0.17399        1.26672
H         -2.49573        1.29267        0.48711
C         -2.01720       -2.21402        1.15196
H         -2.01977       -3.12823        0.55610
H         -1.02307       -1.76248        1.17926
H         -2.38179       -2.42068        2.15878
H          5.43536        0.76840        1.89619
H          5.84569       -0.55118        0.76579
H          5.55321        1.69471       -0.39050
H          4.45587        0.44505       -0.99122
H          3.70612        2.85566        0.28330
H          2.75273        1.68832       -0.41676
H          3.98666       -1.10593        2.32052
H          3.10325        0.12185        1.60755
C          5.08117        0.17552        1.04870
C          4.68860        1.07618       -0.12777
N          3.86419       -0.56137        1.47092
N          3.51549        1.86425        0.23578
N         -2.14349        2.17107       -0.06039
C         -0.81302        1.84379       -0.62531
H         -0.16143        1.48642        0.17288
H         -0.93626        1.03989       -1.34740
H         -0.38993        2.73004       -1.10634
C         -3.14475        2.42072       -1.12074
H         -3.21504        1.51741       -1.72796
H         -4.11105        2.61466       -0.65301
H         -2.83572        3.27868       -1.72453
C         -2.07538        3.27043        0.92082
H         -3.05630        3.39793        1.38078
H         -1.34933        3.00652        1.69064
H         -1.77102        4.19518        0.42268
