41
2msa1dma1tma_26.log	Energy: -1027946.6453406
S         -3.26018       -1.05583        0.18957
O         -2.70269       -0.90744        1.54736
O         -2.48671       -1.93140       -0.70949
O         -3.54354        0.28957       -0.43278
H         -2.41975        1.31715       -0.07150
C         -4.87318       -1.80893        0.36701
H         -5.48442       -1.17168        1.00648
H         -5.31983       -1.90636       -0.62278
H         -4.73395       -2.78968        0.82311
S          1.24946        0.23276       -0.96116
O          0.56144        1.47789       -1.37533
O          1.19227       -0.01367        0.49829
O          2.68045        0.19533       -1.44296
H          3.58160       -0.17136       -0.29551
C          0.43182       -1.11629       -1.77936
H         -0.59523       -1.20240       -1.40799
H          0.45010       -0.91624       -2.85109
H          0.98125       -2.03043       -1.55041
N         -1.67801        2.05282        0.16313
C         -1.33935        1.94860        1.59773
C         -2.18200        3.37296       -0.25278
H         -0.83786        1.81884       -0.40441
H         -2.23597        2.14785        2.18654
H         -1.00310        0.93119        1.79288
H         -0.55462        2.66993        1.83589
H         -3.10187        3.59305        0.29167
H         -1.43145        4.13786       -0.04354
H         -2.39100        3.34545       -1.32237
N          4.23319       -0.44455        0.53040
C          5.60551       -0.52920       -0.01174
H          5.62827       -1.28593       -0.79651
H          5.87666        0.43700       -0.43840
H          6.30405       -0.79693        0.78503
C          4.09407        0.62234        1.54990
H          4.41565        1.56757        1.11094
H          3.03922        0.68785        1.81838
H          4.71148        0.37977        2.41876
C          3.74817       -1.74944        1.04235
H          2.70377       -1.62730        1.33176
H          3.82000       -2.48757        0.24236
H          4.36212       -2.05879        1.89216
