29
2msa1a1ma_07.log	Energy: -929315.6391999
S          2.25176       -0.31146        0.19880
O          1.64290       -1.63532        0.50850
O          1.86882        0.74677        1.17202
O          2.00046        0.10178       -1.20795
H          0.92153        2.01674       -1.27128
C          4.01128       -0.53409        0.37960
H          4.20678       -0.85244        1.40363
H          4.33435       -1.29594       -0.32988
H          4.49980        0.41820        0.17292
S         -2.45894       -0.30963        0.16654
O         -3.73422        0.38993        0.25964
O         -1.49135        0.31701       -0.81429
O         -2.54141       -1.77207       -0.12037
H         -1.17257       -2.21272       -0.93170
C         -1.64392       -0.17641        1.75431
H         -1.55324        0.88026        2.01129
H         -2.26569       -0.68661        2.49064
H         -0.65710       -0.63905        1.68941
N         -0.22660       -2.14429       -1.40122
H          0.52452       -2.11298       -0.66948
H         -0.21834       -1.22197       -1.84445
H         -0.06501       -2.88252       -2.07831
N          0.28161        2.22489       -0.50020
H         -0.51327        1.52445       -0.59905
C         -0.19127        3.61955       -0.45971
H         -0.88324        3.73191        0.37477
H          0.65194        4.29853       -0.33088
H         -0.71522        3.84929       -1.38733
H          0.81638        1.91896        0.33860
