43
2msa1eda1tma_245.log	Energy: -1062669.8368843
S          1.21539        2.23332       -0.33345
O          2.28897        1.89336        0.62482
O          0.05046        2.91351        0.26621
O          0.80144        1.01847       -1.12079
C          1.91510        3.35840       -1.53201
H          2.23009        4.25731       -1.00135
H          2.76927        2.87316       -2.00487
H          1.14860        3.59778       -2.26930
S         -3.12371       -0.64753       -0.48226
O         -2.10496       -1.67378       -0.32131
O         -4.22578       -0.54855        0.46081
O         -3.78482       -0.91021       -1.94620
H         -4.74660       -0.89882       -1.84060
C         -2.35509        0.92806       -0.72961
H         -1.89204        1.22020        0.21309
H         -1.57579        0.83116       -1.48685
H         -3.12540        1.64148       -1.02074
H          0.77085       -1.38750        2.82247
H          1.76275       -0.04562        2.18530
H          0.00857        0.74585        3.76488
H         -0.11509        1.46873        2.15652
H         -1.84960       -0.69947        3.13454
H         -2.28200        0.79529        2.64714
H          1.15358       -1.61273        0.46418
H         -0.51283       -1.27642        0.73643
C          0.76453       -0.48731        2.19852
C         -0.23977        0.53572        2.71429
N          0.44464       -0.91289        0.81565
N         -1.60311        0.05664        2.50369
H          0.51920       -0.12180        0.13017
N          2.61413       -2.24078       -0.33883
C          3.64845       -1.32208        0.13924
H          3.30701       -0.28680        0.03653
H          3.84759       -1.51534        1.19793
H          4.59237       -1.44489       -0.41773
C          2.99142       -3.63103       -0.12021
H          3.16788       -3.80420        0.94535
H          2.18352       -4.29052       -0.44942
H          3.90814       -3.90171       -0.67181
C          2.30899       -1.98553       -1.74726
H          1.49787       -2.64435       -2.07121
H          1.98553       -0.94742       -1.86743
H          3.18580       -2.16659       -2.39147
