42
2msa2eda_555.log	Energy: -1072742.0792540
S         -2.89955       -0.02523        0.16104
O         -2.63693       -0.81750       -1.04276
O         -2.77840        1.42373        0.04059
O         -2.05602       -0.56745        1.36269
H         -1.03622       -0.62015        1.14560
C         -4.52949       -0.41101        0.75245
H         -4.60497       -1.48987        0.88316
H         -4.68336        0.11220        1.69578
H         -5.23168       -0.05924       -0.00384
S          1.51523       -0.75456        1.71589
O          1.36921       -1.82299        2.69604
O          0.35348       -0.65682        0.74812
O          2.76660       -0.82000        0.89225
H          2.46478       -0.80213       -0.62252
C          1.56418        0.80562        2.56767
H          0.61768        0.92264        3.09801
H          2.39279        0.76531        3.27604
H          1.71138        1.60522        1.83217
H          2.13224        3.41733       -1.89628
H          2.68092        1.88454       -1.19687
H          0.47316        1.61451       -2.27553
H          0.36447        1.33165       -0.53274
H         -0.63828        3.66156       -1.96125
H         -1.35269        2.74358       -0.79657
H          2.88013        3.80546        0.34822
H          1.23498        3.86524        0.37941
C          1.93350        2.68383       -1.09522
C          0.53283        2.10525       -1.28911
N          2.03681        3.25278        0.24328
N         -0.47251        3.14581       -1.10459
H          2.33150       -2.53028       -3.03715
H          2.54428       -2.98876       -1.32629
H          0.19459       -3.47830       -2.25727
H          0.20935       -2.42359       -0.83114
H         -0.37809       -1.60700       -3.54918
H         -1.00794       -1.08561       -2.11931
H          3.15231       -0.57600       -2.15699
H          1.48729       -0.38832       -1.99924
C          2.00368       -2.33489       -2.01241
C          0.48233       -2.48770       -1.88678
N          2.32241       -0.91961       -1.68154
N         -0.15173       -1.37638       -2.58887
