31
2msa1tma_24.log	Energy: -943119.7919340
S          1.52943        1.50222       -0.00015
O          2.96751        1.78497       -0.02042
O          0.99626        1.13010        1.33851
O          1.11609        0.46843       -1.01956
H          1.22013       -0.92878       -0.44193
C          0.66586        2.97918       -0.50792
H          0.85262        3.75135        0.23912
H          1.05929        3.28193       -1.47852
H         -0.39728        2.74692       -0.58623
S         -2.44660       -0.07970       -0.12210
O         -2.34480        0.98956       -1.09891
O         -1.78039       -1.35288       -0.32711
O         -4.03372       -0.41844        0.03393
H         -4.52061        0.17216       -0.55829
C         -2.05950        0.51894        1.49848
H         -0.98082        0.73130        1.51257
H         -2.63799        1.42595        1.67375
H         -2.32272       -0.25822        2.21646
N          1.51386       -1.90037       -0.06271
C          0.91524       -2.07944        1.28171
H          1.15591       -1.19612        1.87604
H         -0.16506       -2.15848        1.16528
H          1.32043       -2.98729        1.73675
C          1.03794       -2.91436       -1.02854
H         -0.04553       -2.82733       -1.11014
H          1.49385       -2.71397       -1.99880
H          1.32030       -3.91185       -0.68119
C          2.99302       -1.83394        0.00833
H          3.38253       -1.60854       -0.98444
H          3.27419       -1.02417        0.68308
H          3.38543       -2.78878        0.36758
