40
2msa1dma1eda_499.log	Energy: -1038008.0551147
S         -0.90228       -1.81809        0.06329
O          0.19770       -2.77322        0.20030
O         -0.99561       -1.09032       -1.20137
O         -0.88995       -0.79776        1.26562
H         -0.14681       -0.09144        1.14703
C         -2.43178       -2.64805        0.39706
H         -2.53125       -3.42592       -0.36111
H         -2.36998       -3.08589        1.39311
H         -3.23469       -1.90769        0.31165
S          0.90337        2.18041        0.20946
O          1.01277        3.33505        1.08980
O          0.97080        0.85529        0.92519
O          1.89430        2.16365       -0.91648
H          2.78303        0.92595       -1.06577
C         -0.69729        2.22655       -0.57738
H         -1.45708        2.24908        0.20502
H         -0.74467        3.13632       -1.17629
H         -0.80027        1.33531       -1.19864
N         -3.87177        0.22381       -0.28916
C         -3.87836        0.99494        0.94337
C         -4.86299        0.68126       -1.24874
H         -2.94926        0.25078       -0.71395
H         -4.82740        0.83495        1.46673
H         -3.06889        0.65301        1.59366
H         -3.76860        2.08274        0.78388
H         -5.86697        0.51441       -0.84330
H         -4.77400        1.75461       -1.49211
H         -4.77309        0.10768       -2.17494
H          5.16806       -0.53906       -0.05452
H          4.10694        0.61308        0.80050
H          3.78685       -1.85157        1.49795
H          2.32615       -1.01113        0.96596
H          3.72282       -3.09945       -0.48461
H          2.11207       -2.73185       -0.40192
H          4.24014        0.56498       -1.82575
H          3.16144       -0.70176       -1.58541
C          4.13147       -0.23552        0.11513
C          3.28621       -1.40758        0.63043
N          3.54791        0.17788       -1.18979
N          3.05018       -2.34246       -0.46603
