43
2msa1eda1tma_198.log	Energy: -1062673.7650434
S          1.48273        1.81194       -0.49591
O          2.42574        2.84008       -0.06960
O          0.76425        1.18676        0.68491
O          2.07246        0.73955       -1.35230
H          2.30199       -0.73093       -0.73279
C          0.20406        2.56283       -1.47971
H         -0.29643        3.31199       -0.86538
H          0.67921        3.02792       -2.34373
H         -0.48387        1.77405       -1.78889
S         -0.86070       -1.61112       -0.70663
O          0.05615       -2.62333       -1.23516
O         -1.23288       -0.50030       -1.57439
O         -0.24774       -1.06229        0.64047
H          0.10575       -0.07024        0.58881
C         -2.32612       -2.40803       -0.11027
H         -2.80904       -2.86858       -0.97329
H         -2.03163       -3.16496        0.61656
H         -2.95324       -1.62582        0.33681
H          4.12692       -2.49562        0.83188
H          4.59444       -1.41911       -0.51412
H          4.94994       -0.41359        1.82123
H          3.95220        0.56625        0.75015
H          3.16570       -0.50380        3.21403
H          2.21800        0.31230        2.13391
H          2.28670       -2.41819       -0.76322
H          1.88564       -1.61199        0.62376
C          3.91169       -1.55028        0.32766
C          3.98320       -0.37397        1.31083
N          2.52400       -1.61141       -0.18583
N          2.86766       -0.46141        2.24965
N         -3.81052        0.40607        0.73440
C         -4.40505        0.60946       -0.57692
H         -3.63292        0.51076       -1.34500
H         -5.17230       -0.15064       -0.75777
H         -4.87847        1.60479       -0.67583
C         -4.81137        0.45243        1.78512
H         -5.57310       -0.31389        1.60994
H         -4.34116        0.25408        2.75291
H         -5.31804        1.43487        1.84420
C         -2.74491        1.36632        0.97821
H         -2.25071        1.14632        1.92829
H         -1.99719        1.29527        0.18594
H         -3.12181        2.40646        1.01367
