37
2msa1ma1eda_262.log	Energy: -1013360.7406449
S         -2.23759       -1.00375        0.44250
O         -2.96871       -0.26251       -0.59586
O         -1.71555       -0.14582        1.53938
O         -1.13854       -1.86959       -0.11491
C         -3.38926       -2.14392        1.18351
H         -4.21506       -1.56603        1.59884
H         -3.74460       -2.81748        0.40358
H         -2.87006       -2.69629        1.96670
S          2.14851       -0.99123       -0.62281
O          3.41672       -0.56769       -0.04204
O          1.47640       -0.07638       -1.54054
O          1.20027       -1.34837        0.57571
H          0.21659       -1.55744        0.28436
C          2.37346       -2.54911       -1.45091
H          3.04436       -2.37799       -2.29326
H          2.80951       -3.25293       -0.74233
H          1.39688       -2.89048       -1.79715
N          2.45510        2.08199        1.27105
H          3.04234        1.48711        0.68668
C          2.29264        1.44339        2.58534
H          3.24085        1.28512        3.11213
H          1.64145        2.05794        3.21341
H          1.81568        0.47017        2.44619
H          2.92880        2.97472        1.36322
H         -2.08286        2.28844        0.48290
H         -0.88646        3.59004        0.64926
H         -2.30832        3.66509       -1.47684
H         -0.56279        3.69484       -1.77107
H         -2.15125        1.21028       -1.93032
H         -1.38455        1.99810       -3.18174
H         -0.45718        0.93920        0.83084
H         -0.00039        1.22345       -0.74464
C         -1.16937        2.71402        0.06192
C         -1.38678        3.06750       -1.41176
N         -0.11692        1.67360        0.18274
N         -1.39050        1.83887       -2.18381
H          0.82946        2.00421        0.51187
