35
2msa1ma1dma_99.log	Energy: -978623.5560353
S          2.76555        0.39569       -0.15915
O          2.05554        1.68318       -0.05341
O          2.60979       -0.33632       -1.40674
O          2.42271       -0.50286        1.07044
H          1.40022       -0.78444        1.08334
C          4.48595        0.70193        0.15133
H          4.84108        1.35076       -0.64972
H          4.58348        1.19013        1.12026
H          5.00877       -0.25393        0.13560
S         -0.81069       -1.71519        0.07597
O         -2.00375       -2.36337        0.61481
O          0.03303       -1.09042        1.16781
O         -1.08450       -0.70431       -0.98529
H         -1.02186        0.85643       -0.32925
C          0.23117       -2.94499       -0.68241
H          0.50117       -3.67669        0.07940
H         -0.33935       -3.41624       -1.48308
H          1.11355       -2.44231       -1.08343
N         -3.68488        0.45228       -0.08563
H         -3.29497        0.05741       -0.93745
C         -5.10008        0.77283       -0.26129
H         -5.72687       -0.08090       -0.55628
H         -5.50265        1.17998        0.67109
H         -5.20653        1.54791       -1.02714
H         -3.57312       -0.29460        0.59656
N         -0.75466        1.80853        0.01926
C         -1.12344        1.92941        1.44774
C         -1.37792        2.82502       -0.85087
H          0.27678        1.83493       -0.06711
H         -2.20865        1.85082        1.51911
H         -0.65660        1.10316        1.98392
H         -0.76737        2.88814        1.82919
H         -2.45994        2.71535       -0.76647
H         -1.06305        3.82021       -0.53190
H         -1.06182        2.64777       -1.87916
