44
2msa2tma_60.log	Energy: -1052596.9337912
S         -1.83108        0.14149       -0.32504
O         -1.60104        1.49155        0.20665
O         -2.55261        0.09395       -1.61649
O         -2.53608       -0.75188        0.68537
H         -3.97229       -0.56558        0.48879
C         -0.24045       -0.62252       -0.55719
H          0.33151       -0.02392       -1.26897
H          0.28031       -0.62850        0.40203
H         -0.40390       -1.63289       -0.93464
S          2.83735        1.47463        0.09713
O          2.62520        0.93835       -1.26901
O          4.13502        2.12735        0.30586
O          2.59541        0.36386        1.11400
H          3.25567       -0.81821        0.59274
C          1.55607        2.66665        0.42017
H          1.67308        3.46740       -0.31110
H          0.57516        2.19614        0.32196
H          1.70266        3.04935        1.43054
N          3.78352       -1.68774        0.15270
C          5.03758       -1.15516       -0.43325
H          4.77246       -0.43216       -1.20542
H          5.59800       -0.64029        0.34776
H          5.62327       -1.97913       -0.85048
C          4.04260       -2.64527        1.24459
H          4.66448       -2.16005        1.99784
H          3.09249       -2.93323        1.69663
H          4.55215       -3.52995        0.85255
C          2.89237       -2.24211       -0.88983
H          1.98267       -2.61162       -0.41439
H          2.63994       -1.43087       -1.57496
H          3.39857       -3.05910       -1.41212
N         -5.04434       -0.37677        0.30954
C         -5.78014       -0.83089        1.50530
H         -5.58948       -1.89399        1.65736
H         -5.42066       -0.27530        2.37223
H         -6.85177       -0.66055        1.37019
C         -5.17591        1.08548        0.09748
H         -4.77861        1.60231        0.97167
H         -4.57959        1.35935       -0.77367
H         -6.22911        1.33746       -0.05359
C         -5.40937       -1.13692       -0.90732
H         -4.73317       -0.82582       -1.70515
H         -5.26912       -2.20078       -0.71094
H         -6.45282       -0.93739       -1.16665
