32
2msa2ma_152.log	Energy: -953960.5073052
S         -2.67310       -0.90673       -0.02110
O         -4.03344       -1.36736        0.24954
O         -2.12429        0.07803        0.94987
O         -2.48455       -0.38740       -1.42793
H         -1.76958        0.94988       -1.39444
C         -1.60022       -2.33585        0.07283
H         -1.70805       -2.76894        1.06862
H         -1.92140       -3.05057       -0.68574
H         -0.57460       -2.00541       -0.10189
S          1.65092        0.54097        0.68832
O          1.43199       -0.69161       -0.13992
O          1.12733        1.76217        0.04021
O          3.09854        0.66126        1.05694
H          3.98847       -0.53899        0.27861
C          0.74895        0.31095        2.19914
H         -0.30695        0.17999        1.93807
H          1.14723       -0.57238        2.69915
H          0.90127        1.20065        2.81106
N          3.97944       -1.29639       -0.45728
H          4.43241       -2.14432       -0.12606
C          4.53339       -0.80059       -1.73637
H          4.39077       -1.54957       -2.51485
H          3.99644        0.11101       -1.99732
H          5.59345       -0.58009       -1.61450
H          2.93557       -1.41789       -0.51443
N         -1.29889        1.92293       -1.30209
H         -0.39364        1.79163       -0.80837
C         -2.17677        2.83104       -0.53050
H         -1.68570        3.79491       -0.39094
H         -3.11929        2.95753       -1.06379
H         -2.36798        2.34962        0.42829
H         -1.10393        2.28535       -2.23189
