40
2msa1dma1eda_340.log	Energy: -1038016.8627937
S          2.64542       -0.00475       -0.09211
O          1.98748       -0.28416        1.19579
O          3.02340        1.37181       -0.36685
O          1.77534       -0.54624       -1.25899
H          0.86659       -1.04095       -0.97305
C          4.10399       -1.01739       -0.17207
H          4.78339       -0.67348        0.60830
H          3.81494       -2.05554       -0.00987
H          4.55147       -0.88511       -1.15711
S         -1.68558       -1.34463       -1.06278
O         -2.44080       -2.51225       -1.48954
O         -0.27421       -1.69473       -0.61701
O         -2.32886       -0.54385        0.02543
H         -1.32758       -0.49383        1.38217
C         -1.49429       -0.25098       -2.45793
H         -0.88988        0.62079       -2.18870
H         -1.01423       -0.81866       -3.25617
H         -2.49559        0.05364       -2.76528
N         -0.60922       -0.56144        2.14354
C         -0.55298       -1.96685        2.60269
C         -0.88278        0.43015        3.20639
H          0.29751       -0.34643        1.69155
H         -1.51980       -2.24133        3.02666
H         -0.33260       -2.59199        1.73742
H          0.23082       -2.06652        3.35510
H         -1.79305        0.13927        3.73376
H         -0.04109        0.45194        3.90035
H         -1.04136        1.40322        2.73637
H         -2.21969        2.55198       -1.13914
H         -1.77016        3.93715       -0.13979
H          0.21061        2.79095        0.68686
H         -0.31927        1.26872       -0.03196
H          0.31006        3.62210       -1.66153
H          1.29843        2.34354       -1.43103
H         -3.30011        2.88307        1.17688
H         -2.81052        1.38087        0.75560
C         -1.76042        2.84118       -0.18246
C         -0.31406        2.35598       -0.17815
N         -2.48218        2.31800        0.97910
N          0.32255        2.62621       -1.46273
