37
2msa1ma1eda_166.log	Energy: -1013360.8060565
S          1.57434        1.56217        0.44704
O          2.81208        1.31345        1.16817
O          0.39574        1.12490        1.38199
O          1.42146        0.94509       -0.87191
C          1.32124        3.31364        0.26021
H          0.33052        3.46444       -0.17100
H          1.39860        3.77727        1.24328
H          2.09645        3.68749       -0.40929
S         -2.52483        0.38845       -0.38422
O         -3.21187       -0.59640        0.46591
O         -1.58672       -0.21345       -1.36102
O         -1.85420        1.48132        0.41104
H         -0.55709        1.25387        0.95010
C         -3.77398        1.24391       -1.32349
H         -4.30399        0.50338       -1.92287
H         -4.45249        1.72738       -0.62076
H         -3.28379        1.97887       -1.96169
N          2.94165       -1.41922       -1.80774
H          3.25232       -1.79833       -2.69603
C          4.00613       -1.50810       -0.79957
H          4.95578       -1.06830       -1.12759
H          3.68726       -0.97456        0.09927
H          4.18057       -2.55638       -0.54120
H          2.69446       -0.44139       -1.95139
H          1.30710       -3.04675        0.93134
H          1.33048       -1.28954        1.21107
H         -0.38710       -2.58830        2.61600
H         -1.03407       -1.23187        1.70462
H         -1.77527       -3.92240        1.41416
H         -2.36456       -2.58745        0.64645
H          1.35004       -1.86789       -1.14947
H         -0.15754       -2.69015       -0.88982
C          0.72809       -2.12254        0.84695
C         -0.59700       -2.22925        1.60315
N          0.45197       -1.92023       -0.59562
N         -1.51866       -3.10391        0.87870
H         -0.10353       -1.06104       -0.78456
