34
2msa1a1eda_55.log	Energy: -988709.7130509
S         -2.47123        0.39383        0.15339
O         -2.14938        0.68866       -1.26310
O         -1.62143        1.16603        1.10158
O         -2.47599       -1.07077        0.44272
C         -4.14489        0.93491        0.44949
H         -4.80545        0.38089       -0.21753
H         -4.38687        0.72717        1.49187
H         -4.20077        2.00472        0.24756
S          1.58617       -1.54208        0.22482
O          3.01733       -1.26064        0.39199
O          1.23851       -2.95000       -0.11403
O          0.92459       -0.61780       -0.76014
C          0.79587       -1.21704        1.79478
H          1.21190       -1.91105        2.52589
H          1.00304       -0.18641        2.08563
H         -0.28036       -1.35753        1.68124
N         -1.06008       -2.37689       -1.45208
H         -0.65126       -1.55696       -1.90915
H         -1.54875       -2.97596       -2.10920
H         -0.24819       -2.85200       -0.98399
H         -1.70480       -1.98574       -0.71655
H          1.63344        3.53915       -1.23860
H          0.86371        3.79495        0.34921
H          3.22509        3.32230        0.69126
H          2.32532        1.92517        1.25947
H          4.28955        1.93442       -0.71215
H          3.32904        0.65464       -0.32918
H         -0.25562        2.18164       -1.35831
H          0.83987        1.06095       -0.80743
C          1.35679        3.06291       -0.29634
C          2.61174        2.47943        0.35445
N          0.38449        1.98094       -0.58931
N          3.33073        1.63954       -0.58993
H         -0.25006        1.76154        0.21134
