42
2msa2eda_182.log	Energy: -1072758.4488048
S         -2.40607       -0.14743       -0.53474
O         -1.48263        0.72397       -1.34642
O         -2.50069        0.28690        0.86642
O         -2.04009       -1.57756       -0.71164
C         -4.01733        0.05670       -1.26950
H         -4.30156        1.10455       -1.17132
H         -3.95732       -0.23318       -2.31840
H         -4.71430       -0.58368       -0.72854
S          0.78272        2.30775        0.71282
O          1.76247        3.36281        0.86059
O          1.27443        0.94439        0.44327
O         -0.21214        2.72318       -0.43119
H         -0.76545        1.93023       -0.77014
C         -0.24638        2.22410        2.15800
H          0.39033        1.91814        2.98923
H         -0.65680        3.21902        2.33114
H         -1.03952        1.49558        1.96748
H          1.76948       -2.10977       -2.82301
H          0.61264       -0.82548       -3.26553
H          3.01697       -0.11847       -3.44095
H          2.04458        0.90408       -2.37879
H          4.34484       -0.02076       -1.60582
H          3.11343        0.02423       -0.54094
H         -0.23179       -1.64015       -1.25933
H          1.28777       -1.86799       -0.53482
C          1.37422       -1.13017       -2.54403
C          2.49264       -0.09520       -2.48120
N          0.72943       -1.26652       -1.21797
N          3.43076       -0.40861       -1.40551
H          0.63694       -0.34332       -0.77234
H          1.84607       -2.78364        2.91215
H          2.15624       -1.22792        2.11195
H         -0.15810       -1.40976        3.09153
H         -0.12326       -1.01301        1.38931
H         -1.13880       -3.42152        2.55962
H         -1.47570       -2.71263        1.11173
H          2.86000       -3.05541        0.70323
H          1.32572       -3.67782        0.74606
C          1.57529       -2.15377        2.05178
C          0.08289       -1.81667        2.10040
N          1.87595       -2.82122        0.77795
N         -0.72862       -2.98020        1.74645
