41
2msa1dma1tma_99.log	Energy: -1027940.3875338
S         -2.22831       -1.74305       -0.06210
O         -3.39768       -2.61310       -0.20823
O         -2.12847       -1.03738        1.24398
O         -2.08342       -0.74657       -1.18671
H         -2.23076        0.67628       -0.59862
C         -0.77342       -2.77309       -0.19213
H         -0.78483       -3.47659        0.64160
H         -0.82869       -3.30794       -1.14115
H          0.10757       -2.12816       -0.16702
S          1.58616        0.70352        0.64271
O          1.66552       -0.40291       -0.33944
O          0.80394        1.87110        0.21038
O          2.98963        1.08969        1.07703
H          3.97698        0.45365        0.23049
C          0.80775        0.05726        2.10759
H         -0.20457       -0.27075        1.84548
H          1.40026       -0.78566        2.46514
H          0.78540        0.85006        2.85640
N          4.68973       -0.07196       -0.43762
C          4.35512        0.28383       -1.83704
C          4.58768       -1.52298       -0.15790
H          5.62369        0.26304       -0.20769
H          3.31550       -0.00122       -2.00452
H          4.45889        1.36237       -1.95836
H          5.02118       -0.24133       -2.52479
H          3.55098       -1.81106       -0.33616
H          5.26664       -2.08068       -0.80628
H          4.83807       -1.69628        0.88915
N         -2.60557        1.66458       -0.38992
C         -2.29003        2.04698        1.00719
H         -2.63491        1.24552        1.66070
H         -1.20888        2.15705        1.09326
H         -2.79121        2.99238        1.23481
C         -1.96936        2.56988       -1.37305
H         -0.89344        2.56025       -1.19328
H         -2.18273        2.19599       -2.37546
H         -2.37327        3.57885       -1.25244
C         -4.06533        1.53529       -0.60026
H         -4.24133        1.15712       -1.60730
H         -4.45267        0.81281        0.11924
H         -4.54319        2.50879       -0.46256
