30
2msa1eda_02.log	Energy: -953208.9607378
S         -0.33929        2.38011       -0.06704
O         -0.88024        3.70755       -0.25844
O          0.84201        2.19334       -1.08461
O         -1.27307        1.24497       -0.18455
H         -1.26296       -0.39093       -0.75833
C          0.43979        2.25141        1.52557
H          1.20595        3.02441        1.58539
H         -0.33720        2.42169        2.27202
H          0.86249        1.24715        1.62327
S          1.94167       -1.15979       -0.01985
O          1.25123       -2.14189       -0.90438
O          1.21463       -0.92538        1.24511
O          2.26746        0.11130       -0.73349
H          1.36161        1.32477       -0.94945
C          3.51879       -1.88698        0.37152
H          3.33681       -2.82987        0.88725
H          4.05437       -2.05329       -0.56289
H          4.06334       -1.19311        1.01186
H         -1.76659       -2.97040        0.56869
H         -1.15242       -1.47432        1.29839
H         -3.64096       -1.73908        1.69838
H         -3.27321       -0.30732        0.72769
H         -4.41828       -2.80648       -0.26777
H         -4.86636       -1.26479       -0.58149
H         -0.38793       -1.80963       -0.97822
H         -2.03880       -1.68766       -1.48428
C         -1.83261       -1.87910        0.54718
C         -3.26829       -1.40154        0.72285
N         -1.34540       -1.42570       -0.77875
N         -4.06893       -1.86547       -0.41267
