43
2msa1eda1tma_229.log	Energy: -1062670.8626113
S          1.08555       -1.92128       -0.99446
O          0.06480       -2.85362       -0.48904
O          2.13295       -1.57556        0.01925
O          0.51906       -0.68285       -1.59959
C          1.96263       -2.76634       -2.30222
H          2.41730       -3.66268       -1.87977
H          1.24245       -3.03088       -3.07693
H          2.72646       -2.09552       -2.69594
S         -2.87015        0.06557        0.13482
O         -1.79690        0.08636        1.13177
O         -3.30861        1.30174       -0.47155
O         -4.15921       -0.56311        0.89409
H         -3.85510       -1.00375        1.70046
C         -2.52958       -1.14196       -1.10935
H         -2.23667       -2.07511       -0.62565
H         -3.42460       -1.24103       -1.72337
H         -1.66856       -0.77468       -1.67545
H          2.22747        1.40555        2.64500
H          0.47512        1.64360        2.88130
H          1.23412       -0.08075        4.39848
H          0.21780       -0.83486        3.16430
H          2.44307       -1.92903        3.71717
H          2.25766       -1.63318        2.11567
H          1.12245        1.55248        0.48470
H          1.61542       -0.06199        0.71612
C          1.24275        0.94466        2.53886
C          1.19362       -0.35154        3.33846
N          1.00428        0.69241        1.09914
N          2.34255       -1.19135        3.03060
H          0.03878        0.36615        0.95718
N          1.16915        2.75090       -0.77275
C         -0.15197        2.60831       -1.38743
H         -0.30328        1.56149       -1.66187
H         -0.92925        2.90137       -0.67650
H         -0.24931        3.23114       -2.29160
C          1.41494        4.12400       -0.35071
H          0.64122        4.43781        0.35590
H          2.38755        4.19163        0.14544
H          1.41065        4.82514       -1.20234
C          2.21436        2.26835       -1.67549
H          3.18765        2.33754       -1.18042
H          2.01398        1.22210       -1.92223
H          2.25214        2.85846       -2.60632
