43
2msa1eda1tma_15.log	Energy: -1062692.0976196
S         -3.03855        0.54583        0.01001
O         -2.73628        1.92146        0.42324
O         -3.33165       -0.41649        1.08672
O         -1.94161        0.00017       -0.89581
C         -4.48585        0.61636       -1.03416
H         -5.31343        0.98420       -0.42692
H         -4.28292        1.29956       -1.85894
H         -4.69859       -0.38648       -1.40489
S          3.10313       -0.56870       -0.00642
O          2.63406       -1.61752        0.92161
O          3.41821        0.72677        0.62187
O          2.15068       -0.40408       -1.16408
C          4.61875       -1.17377       -0.73507
H          4.97176       -0.43674       -1.45663
H          5.34593       -1.30413        0.06692
H          4.41386       -2.12595       -1.22494
H         -0.51594        2.32755        1.01764
H          0.87556        1.23802        1.28553
H          1.48370        3.63861        1.72616
H          2.44436        2.88323        0.44758
H          0.22371        4.76755        0.02877
H          1.75779        4.86070       -0.53933
H         -0.53395        1.08424       -0.87860
H          0.39641        2.43262       -1.31499
C          0.48653        2.05661        0.67819
C          1.44405        3.24177        0.70396
N          0.36065        1.58916       -0.72903
N          1.01220        4.21907       -0.29916
H          1.13751        0.92650       -0.97941
N         -1.01617       -2.35714        0.07399
C         -2.22217       -3.21738        0.13328
H         -2.95265       -2.73172        0.78071
H         -2.63306       -3.31794       -0.87247
H         -1.94047       -4.19899        0.52080
C          0.01866       -2.89471       -0.84664
H         -0.44867       -3.09218       -1.81262
H          0.81402       -2.15408       -0.95541
H          0.42297       -3.81692       -0.42444
C         -0.47313       -2.09367        1.43531
H          0.48099       -1.57159        1.34279
H         -1.21453       -1.50843        1.98090
H         -0.29622       -3.05170        1.92949
H         -1.33658       -1.43145       -0.31332
