32
2msa2ma_151.log	Energy: -953959.5873136
S         -2.75790       -0.73746       -0.23213
O         -4.18150       -0.98605       -0.20236
O         -2.23237       -0.76997        1.25161
O         -2.28886        0.50384       -0.87876
H         -1.27391        1.77298       -0.41612
C         -1.91472       -2.08901       -1.01545
H         -2.23729       -3.00701       -0.52418
H         -2.21051       -2.08647       -2.06518
H         -0.83891       -1.93382       -0.89849
S          1.26913       -0.06412        0.74007
O          1.69973        1.08358       -0.12036
O          1.06618       -1.32161        0.01271
O          0.04964        0.34960        1.52921
H         -1.29492       -0.38104        1.34970
C          2.57015       -0.31436        1.92395
H          2.28963       -1.15905        2.55355
H          3.48526       -0.51341        1.35683
H          2.67123        0.59568        2.51559
N          4.51777       -0.20005       -0.77547
H          3.78634        0.49911       -0.87753
C          4.19682       -1.38816       -1.56643
H          4.11464       -1.20764       -2.64884
H          4.96595       -2.14993       -1.40639
H          3.24339       -1.79520       -1.21984
H          5.38905        0.21619       -1.08450
N         -0.59592        2.50820       -0.11836
H         -0.69354        2.57887        0.89472
C         -0.80606        3.78852       -0.82158
H         -0.07682        4.52016       -0.47413
H         -0.67487        3.62246       -1.89016
H         -1.81673        4.14951       -0.63210
H          0.35973        2.08977       -0.26250
