29
2msa1a1ma_74.log	Energy: -929301.5307225
S         -1.43251       -1.15754        0.23896
O         -0.75937       -0.53715        1.39019
O         -0.90346       -0.63986       -1.07750
O         -2.91491       -1.01415        0.25456
H         -3.17788        0.45097       -0.63585
C         -1.04620       -2.89167        0.26200
H          0.04030       -2.97298        0.19419
H         -1.41665       -3.30910        1.19842
H         -1.52813       -3.36376       -0.59391
S          2.48325       -0.07970       -0.22829
O          3.71974        0.45794       -0.76016
O          2.23293       -1.51371       -0.24911
O          1.28552        0.65241       -0.99592
H          0.46837        0.04684       -1.03947
C          2.27305        0.51046        1.43849
H          3.05495        0.04612        2.04102
H          2.39346        1.59426        1.43273
H          1.27965        0.20908        1.77619
N         -2.93897        1.21225       -1.31830
H         -2.47615        0.72353       -2.08588
H         -2.18658        1.86956       -0.86846
H         -3.76105        1.71454       -1.63968
N         -0.93631        2.68250       -0.17231
H         -0.10501        2.12960       -0.39032
C         -1.10888        2.75542        1.28968
H         -0.26792        3.24794        1.79080
H         -2.02284        3.30870        1.52219
H         -1.20199        1.73900        1.67831
H         -0.76870        3.60928       -0.55415
