31
2msa1tma_14.log	Energy: -943128.6537357
S          1.07914        1.63868       -0.00902
O          0.44478        1.19365       -1.28999
O          2.49637        1.97718       -0.15058
O          0.83895        0.58401        1.04585
H          1.34831       -0.76988        0.40160
C          0.17265        3.06850        0.53034
H          0.31183        3.84574       -0.22151
H         -0.87875        2.78462        0.60297
H          0.57401        3.38560        1.49296
S         -2.52325       -0.30314       -0.07599
O         -3.63048       -1.13134       -0.50914
O         -2.65262        1.14609       -0.03314
O         -1.26555       -0.68047       -0.98266
H         -0.65930        0.12902       -1.11994
C         -2.00207       -0.85700        1.53638
H         -2.79687       -0.59373        2.23551
H         -1.87535       -1.93972        1.50397
H         -1.07122       -0.34196        1.78101
N          1.85330       -1.64352        0.04718
C          3.14118       -1.65036        0.78258
H          3.65633       -0.71139        0.57551
H          2.93585       -1.71754        1.85116
H          3.74297       -2.50226        0.45788
C          1.00245       -2.81258        0.36535
H          0.83973       -2.84709        1.44349
H          0.04899       -2.68877       -0.14987
H          1.50032       -3.72702        0.03461
C          2.06451       -1.49917       -1.41716
H          1.09395       -1.46054       -1.90945
H          2.59367       -0.56459       -1.60333
H          2.64420       -2.35378       -1.77425
