32
2msa1a1dma_151.log	Energy: -953954.3809868
S         -1.32626       -1.63748       -0.00077
O         -0.99474       -3.05422        0.02768
O         -0.30512       -0.77410       -0.70558
O         -1.60485       -1.02770        1.34468
H         -0.63618        0.10661        1.69760
C         -2.81879       -1.40782       -0.94404
H         -2.65566       -1.84631       -1.92905
H         -3.62074       -1.93207       -0.42284
H         -3.03263       -0.33770       -1.02336
S          2.67284        0.28599       -0.06703
O          2.67043       -0.12818        1.34405
O          1.96562        1.54038       -0.33693
O          2.15143       -0.86081       -0.98396
H          1.11144       -0.94961       -0.89018
C          4.34902        0.39681       -0.63030
H          4.83277        1.17651       -0.04168
H          4.82734       -0.56837       -0.46610
H          4.33640        0.65654       -1.68837
N          0.07975        0.89518        1.88391
H         -0.21641        1.49133        2.65110
H          0.20287        1.44575        1.02769
H          1.00335        0.47319        2.07023
N         -3.05927        2.09261       -0.73987
C         -1.66744        2.31409       -1.10406
C         -3.26386        1.98065        0.69475
H         -3.63623        2.83827       -1.11138
H         -1.08546        1.40641       -0.91435
H         -1.59195        2.51742       -2.17499
H         -1.20226        3.15931       -0.56255
H         -2.80587        1.05462        1.05906
H         -2.84184        2.83088        1.26460
H         -4.33330        1.92116        0.91324
