40
2msa1dma1eda_70.log	Energy: -1038035.6070349
S          1.53493        1.55111        0.51176
O          2.99689        1.66372        0.43401
O          0.94924        0.71342       -0.59397
O          0.79395        2.84234        0.57941
H         -0.70442        2.51771       -0.15451
C          1.15706        0.68436        2.02731
H          1.73453       -0.24201        2.04157
H          1.44824        1.32931        2.85718
H          0.09146        0.45107        2.04976
S         -2.12555       -1.49872        0.28611
O         -2.67426       -0.12770        0.07806
O         -1.09112       -1.55839        1.34118
O         -1.67516       -2.13565       -0.98341
H          0.11241       -2.29026       -0.86855
C         -3.51577       -2.46429        0.85382
H         -3.88303       -2.02123        1.77975
H         -4.28538       -2.44173        0.08233
H         -3.17170       -3.48448        1.02505
N         -1.60030        2.23778       -0.62256
C         -1.39179        2.22777       -2.08501
C         -2.69807        3.11286       -0.17041
H         -1.82396        1.25952       -0.31884
H         -1.20355        3.24596       -2.43011
H         -0.52569        1.59910       -2.28820
H         -2.28149        1.82109       -2.56844
H         -2.47762        4.14636       -0.44276
H         -3.62966        2.78947       -0.63716
H         -2.78819        3.02754        0.91235
H          2.40252       -3.46217       -1.06357
H          1.96036       -2.36891       -2.38899
H          4.29123       -1.92700       -1.53212
H          3.21873       -0.52858       -1.42817
H          4.34603       -1.97269        0.77849
H          3.79018       -0.41998        0.66686
H          1.13085       -2.16976        0.43800
H          0.98260       -0.89424       -0.58329
C          2.21177       -2.41825       -1.32689
C          3.41236       -1.52248       -1.01432
N          1.04159       -1.94866       -0.55422
N          3.59667       -1.38971        0.42792
