38
2msa1ma1tma_15.log	Energy: -1003290.4608174
S         -2.08062       -1.68997       -0.12568
O         -2.49966       -3.00830       -0.55026
O         -1.54840       -0.92778       -1.39728
O         -1.07785       -1.59968        0.94800
H          0.34088       -0.64057        1.33639
C         -3.48975       -0.73163        0.37415
H         -4.21640       -0.76204       -0.43777
H         -3.89455       -1.19942        1.27236
H         -3.15187        0.28951        0.56994
S         -0.53804        2.24646       -0.00898
O          0.47220        2.45450        1.05998
O         -1.92100        2.10024        0.46074
O         -0.11281        1.10121       -0.89587
H         -1.02789       -0.07716       -1.16580
C         -0.47567        3.69780       -1.04250
H         -0.74275        4.55650       -0.42599
H          0.53570        3.80405       -1.43496
H         -1.19529        3.56728       -1.85098
N          1.22609       -0.16314        1.58040
H          1.92412       -0.41844        0.81794
C          1.69531       -0.55966        2.91942
H          2.64126       -0.06120        3.13402
H          0.95606       -0.27084        3.66645
H          1.83592       -1.64066        2.94960
H          1.03923        0.85893        1.50821
N          2.91766       -0.83886       -0.53624
C          3.19350        0.43200       -1.20670
H          2.24724        0.94537       -1.39468
H          3.81305        1.06119       -0.56070
H          3.72270        0.28127       -2.16198
C          4.14945       -1.53819       -0.18863
H          4.76458       -0.90732        0.45978
H          3.91248       -2.46265        0.34611
H          4.74134       -1.79862       -1.08214
C          2.04513       -1.68027       -1.35686
H          1.78714       -2.59183       -0.81044
H          1.12231       -1.14199       -1.58030
H          2.52935       -1.96302       -2.30548
