31
2msa1tma_31.log	Energy: -943113.1039005
S         -0.42239        1.28056        0.00956
O         -1.56846        2.13419       -0.19867
O          0.86939        1.91553        0.32042
O         -0.24660        0.41417       -1.31481
H          0.64540       -0.01537       -1.34090
C         -0.77215        0.07113        1.25575
H         -0.89975        0.61624        2.19249
H         -1.70269       -0.43392        0.95827
H          0.07616       -0.61348        1.32562
S          3.01108       -0.60969        0.04648
O          2.21509       -0.71461       -1.18477
O          2.47791       -1.26042        1.23028
O          3.31312        0.91950        0.33092
H          2.44067        1.40672        0.36248
C          4.65714       -1.17223       -0.28293
H          5.04032       -0.63511       -1.14957
H          5.26144       -0.98484        0.60433
H          4.58519       -2.24146       -0.48392
N         -3.67441       -0.82819        0.07767
C         -3.52404       -0.64107       -1.35832
H         -3.07300        0.33384       -1.55716
H         -2.86239       -1.41153       -1.76452
H         -4.49389       -0.69653       -1.88760
C         -4.24871       -2.12710        0.38085
H         -3.60906       -2.91792       -0.02260
H         -4.31755       -2.26177        1.46467
H         -5.26183       -2.25156       -0.04700
C         -4.45360        0.25092        0.66497
H         -4.52690        0.10755        1.74774
H         -3.95604        1.20579        0.47425
H         -5.47961        0.30011        0.25429
