43
2msa1eda1tma_182.log	Energy: -1062674.2014135
S          2.64141       -1.77204        0.04909
O          2.57063       -0.78368        1.15355
O          3.55715       -2.89295        0.25285
O          2.87337       -1.04336       -1.26086
H          3.19078        0.35612       -0.90824
C          1.00103       -2.46514       -0.12758
H          0.77429       -3.01525        0.78753
H          0.29673       -1.64460       -0.27992
H          1.01490       -3.14488       -0.98067
S         -1.36363        0.71853        1.15392
O         -1.12210        2.13857        1.44606
O         -0.95042        0.29650       -0.21150
O         -2.80373        0.31613        1.39081
H         -3.39103       -0.20070        0.13296
C         -0.41205       -0.23828        2.31432
H          0.64971       -0.11178        2.08502
H         -0.65326        0.11425        3.31735
H         -0.68837       -1.28691        2.19935
H          3.42091        3.28634       -1.54516
H          2.83111        1.94852       -2.56157
H          0.93343        3.36775       -1.72530
H          0.82071        1.71870       -1.09327
H          1.64992        4.06005        0.42567
H          0.61498        2.84426        0.83215
H          4.45778        1.45059       -0.58838
H          3.06147        1.55425        0.31158
C          2.82694        2.36734       -1.55297
C          1.40907        2.64172       -1.05141
N          3.44439        1.38540       -0.63146
N          1.48150        3.06385        0.34080
N         -3.84693       -0.57407       -0.78765
C         -3.69003        0.49667       -1.79982
H         -4.18454        1.39713       -1.43329
H         -2.62396        0.69376       -1.91505
H         -4.13852        0.17611       -2.74391
C         -3.10638       -1.79819       -1.17121
H         -2.05695       -1.53036       -1.29485
H         -3.20067       -2.53123       -0.36882
H         -3.52208       -2.20373       -2.09749
C         -5.26608       -0.84967       -0.48156
H         -5.31756       -1.59862        0.30938
H         -5.73678        0.07050       -0.13394
H         -5.77433       -1.21670       -1.37701
