40
2msa1dma1eda_179.log	Energy: -1038024.0969738
S         -2.34432       -0.60309       -0.31389
O         -2.05509       -0.18321        1.07474
O         -1.96094       -2.00195       -0.61284
O         -1.74408        0.33417       -1.32370
C         -4.10909       -0.49019       -0.53429
H         -4.57989       -1.17761        0.16864
H         -4.41101        0.53749       -0.33136
H         -4.34109       -0.76612       -1.56285
S          0.54978        2.49067        0.08074
O          1.32625        3.70572       -0.04178
O          1.21630        1.20399       -0.16984
O         -0.69646        2.60971       -0.87249
H         -1.14361        1.70402       -1.02315
C         -0.18365        2.40606        1.69845
H          0.62538        2.29009        2.42113
H         -0.71445        3.34277        1.86963
H         -0.86699        1.55282        1.71565
N          0.60202       -1.56413        1.60193
C          1.64533       -1.01574        2.46027
C          0.29312       -2.96306        1.88818
H         -0.25619       -1.01687        1.68917
H          2.58756       -1.53413        2.26056
H          1.78794        0.04044        2.21979
H          1.40581       -1.11236        3.52995
H          1.16599       -3.58275        1.65445
H          0.02772       -3.13062        2.94214
H         -0.54575       -3.27480        1.26025
H          2.12472       -2.97878       -1.36360
H          1.61156       -2.18774       -2.87477
H          3.93876       -1.61036       -2.27565
H          2.90375       -0.17947       -2.32568
H          4.47273       -0.59452       -0.31450
H          2.95926       -0.06551       -0.01142
H         -0.14283       -1.90739       -1.27525
H          0.86349       -1.45159       -0.02527
C          1.90196       -2.01827       -1.83424
C          3.11688       -1.10163       -1.76283
N          0.75492       -1.42956       -1.11073
N          3.49449       -0.85007       -0.37697
H          0.60462       -0.44225       -1.34281
