38
2msa2dma_117.log	Energy: -1003280.2931120
S         -3.05633       -0.12520        0.15510
O         -2.52627       -1.51506        0.32941
O         -2.92319        0.39038       -1.21570
O         -2.48581        0.81445        1.16753
H         -1.20000        1.55125        0.45704
C         -4.78910       -0.27545        0.53499
H         -5.22835       -0.96988       -0.18129
H         -4.88649       -0.65497        1.55191
H         -5.24035        0.71246        0.44231
S          0.92215       -1.38235       -0.18737
O          1.18036       -0.83920        1.14688
O          0.72893       -0.36008       -1.23387
O         -0.26064       -2.38903       -0.18276
H         -1.20027       -1.96216        0.02458
C          2.25193       -2.44323       -0.67443
H          3.15128       -1.81839       -0.65822
H          2.32153       -3.24856        0.05674
H          2.03579       -2.83008       -1.66980
N          4.06024        0.18533        0.24547
C          3.82976        1.25452       -0.71028
C          5.31372        0.32677        0.96654
H          3.28318        0.12623        0.89756
H          4.59426        1.21515       -1.49384
H          2.85488        1.11383       -1.18604
H          3.87105        2.26392       -0.25999
H          6.15013        0.22697        0.26609
H          5.42038        1.29918        1.47899
H          5.40246       -0.46769        1.71199
N         -0.39242        1.94521       -0.09819
C          0.63645        2.45653        0.82934
C         -0.91900        2.93087       -1.06502
H         -0.00673        1.13014       -0.61362
H          0.20082        3.24138        1.44945
H          0.97101        1.62596        1.45201
H          1.47625        2.85600        0.25799
H         -1.33808        3.77719       -0.51839
H         -0.11032        3.27021       -1.71469
H         -1.70000        2.43706       -1.64416
