32
2msa2ma_227.log	Energy: -953949.8176187
S          1.60787        0.85552       -0.43290
O          1.13380        1.74070        0.62978
O          1.24663       -0.59786       -0.19304
O          3.08257        0.93117       -0.68926
H          3.79228       -0.49058       -0.29223
C          0.79732        1.31315       -1.94636
H         -0.26944        1.12512       -1.81411
H          1.00434        2.36842       -2.12561
H          1.19555        0.69405       -2.75004
S         -2.28928       -1.27667       -0.24270
O         -2.83734       -2.52723       -0.73484
O         -1.92837       -0.23565       -1.20383
O         -1.01002       -1.60223        0.65127
H         -0.19892       -1.12601        0.30982
C         -3.38719       -0.59312        0.97169
H         -4.32442       -0.37434        0.45747
H         -3.54463       -1.34838        1.74226
H         -2.92785        0.31846        1.37678
N         -1.78299        2.21434        1.54831
H         -1.81604        2.85171        2.33674
C         -2.25833        2.87798        0.33477
H         -1.65634        3.74581        0.02665
H         -2.26115        2.15270       -0.48398
H         -3.29021        3.21365        0.47961
H         -0.80756        1.94995        1.42601
N          3.74329       -1.47114        0.11500
H          2.72764       -1.64372       -0.02702
C          4.06958       -1.45235        1.55987
H          3.89486       -2.43716        1.99206
H          5.11047       -1.15978        1.69260
H          3.41793       -0.71919        2.03486
H          4.30736       -2.12981       -0.41603
