25
2msa1ma_24.log	Energy: -893802.5540102
S          2.06519       -0.74438       -0.10152
O          3.13421       -1.45327       -0.78768
O          0.97854       -0.22520       -1.00496
O          2.54326        0.40138        0.75722
H          2.00965        1.68121        0.36966
C          1.27665       -1.87122        1.03246
H          0.92130       -2.72908        0.45998
H          2.02708       -2.18483        1.75831
H          0.44536       -1.35604        1.51712
S         -2.23696       -0.09251        0.01802
O         -2.53704        1.16372       -0.65825
O         -1.58692       -0.00852        1.32488
O         -1.41594       -1.05086       -0.92968
H         -0.43867       -0.74474       -0.99888
C         -3.72854       -1.04661        0.15606
H         -4.40743       -0.47230        0.78720
H         -4.14785       -1.17765       -0.84105
H         -3.49023       -2.00511        0.61558
N          1.62744        2.68666        0.09909
H          1.97775        3.34541        0.79188
C          0.14170        2.69229        0.03218
H         -0.22894        3.70859       -0.10271
H         -0.16456        2.06462       -0.80067
H         -0.25200        2.25778        0.95035
H          2.03695        2.93096       -0.80090
