32
2msa2ma_21.log	Energy: -953969.6548245
S          2.07207       -0.94925       -0.04440
O          2.24933       -0.26278        1.26118
O          2.35806       -0.09613       -1.21094
O          0.72256       -1.60691       -0.13628
C          3.23580       -2.29707       -0.06319
H          4.23555       -1.87389        0.03560
H          3.00989       -2.95671        0.77446
H          3.12877       -2.82084       -1.01294
S         -2.46319       -0.57336        0.00479
O         -3.71608       -0.21386       -0.62319
O         -2.00828        0.22788        1.15090
O         -1.35131       -0.57066       -1.11024
H         -0.45711       -0.94439       -0.75753
C         -2.50094       -2.27072        0.53797
H         -3.23333       -2.34060        1.34268
H         -2.79766       -2.88525       -0.31185
H         -1.50202       -2.53562        0.88861
N          0.34750        1.75253        1.30877
H          0.54292        2.16482        0.33989
H         -0.55471        1.24933        1.26677
C          0.35137        2.78249        2.36204
H          0.16998        2.31889        3.33186
H          1.32166        3.27982        2.37450
H         -0.43065        3.51445        2.15784
H          1.08495        1.03066        1.45463
N          0.95212        2.54576       -1.28563
H          1.51733        3.37334       -1.44706
C         -0.22386        2.54193       -2.16730
H          0.03074        2.63544       -3.22962
H         -0.76686        1.60516       -2.02681
H         -0.89039        3.36556       -1.89650
H          1.54309        1.73345       -1.48122
