42
2msa2eda_176.log	Energy: -1072759.2262451
S         -0.25573        1.70745       -1.30642
O         -1.47463        1.82168       -0.47348
O         -0.26829        0.57745       -2.25495
O          0.97436        1.70240       -0.43684
H          2.08995        0.62977       -0.51816
C         -0.15396        3.20219       -2.27100
H         -1.03257        3.24381       -2.91505
H         -0.13673        4.04923       -1.58523
H          0.75933        3.16204       -2.86491
S          2.31813       -1.50657       -0.18621
O          3.46636       -2.32447        0.13859
O          2.84094       -0.05405       -0.50735
O          1.23140       -1.41673        0.80073
H         -0.06980       -0.28085        1.21764
C          1.60700       -2.04129       -1.72391
H          2.41195       -2.11103       -2.45555
H          1.15087       -3.01611       -1.54847
H          0.86000       -1.30314       -2.02438
H         -4.25938       -2.71563        0.09633
H         -4.52394       -1.20937        0.99147
H         -4.20980       -0.79691       -1.43987
H         -2.97120        0.00422       -0.47839
H         -2.57878       -2.29258       -2.19534
H         -1.61840       -0.98242       -1.92122
H         -2.85202       -2.67256        2.03686
H         -1.91576       -2.49788        0.69567
C         -3.78109       -1.78028        0.42441
C         -3.33638       -0.97682       -0.79695
N         -2.61547       -2.03848        1.28066
N         -2.23858       -1.65887       -1.48125
H         -1.30536        0.96679        3.59358
H         -0.29750       -0.50680        3.61648
H          1.02168        1.49124        4.19973
H          1.61728        0.73928        2.71627
H          1.15820        3.30484        2.84397
H          0.72288        2.50855        1.48203
H         -1.63867       -0.57651        1.66297
H         -1.15473        0.97901        1.18000
C         -0.47240        0.44815        3.11393
C          0.78219        1.31186        3.14710
N         -0.86928        0.14442        1.71888
N          0.54347        2.58660        2.48178
