35
2msa1a1tma_87.log	Energy: -978615.0928402
S         -1.89342       -1.28792       -0.00944
O         -2.71934       -0.43096        0.86603
O         -1.20955       -2.40914        0.64897
O         -0.93307       -0.45869       -0.82884
C         -3.01439       -1.99801       -1.21040
H         -3.73380       -2.61339       -0.66932
H         -3.52253       -1.18944       -1.73671
H         -2.43628       -2.60847       -1.90465
S          2.46517       -0.43589       -0.07709
O          2.29276        0.50618       -1.16688
O          2.02677       -0.07641        1.26420
O          4.06471       -0.72525        0.02864
H          4.31264       -0.68610        0.96322
C          1.84697       -2.02340       -0.54724
H          0.77038       -1.89756       -0.68185
H          2.34527       -2.31097       -1.47294
H          2.05058       -2.72511        0.26077
N         -0.68078        0.87624        2.71274
H         -0.72850        0.91801        3.72538
H          0.13801        0.32075        2.47338
H         -1.48994        0.34652        2.38550
N         -0.63938        2.15371       -0.43202
C         -0.49170        2.36793       -1.89144
H          0.46892        1.95639       -2.20154
H         -1.29519        1.83674       -2.40133
H         -0.54224        3.43858       -2.10311
C         -1.97220        2.57808        0.06550
H         -2.73609        1.97231       -0.42088
H         -2.00161        2.39064        1.13854
H         -2.10993        3.63952       -0.15542
C          0.45293        2.80457        0.33517
H          0.33099        2.52175        1.38229
H          1.40650        2.44848       -0.05165
H          0.36591        3.88648        0.20395
H         -0.60792        1.10550       -0.32064
