37
2msa1ma1eda_184.log	Energy: -1013360.9401741
S         -1.64051       -1.68639        0.38643
O         -1.72372       -2.30653       -0.93579
O         -2.65582       -0.65176        0.67502
O         -0.25678       -1.11150        0.66819
C         -1.83910       -2.96772        1.61260
H         -1.74268       -2.51825        2.60076
H         -2.83019       -3.40240        1.47935
H         -1.06717       -3.72038        1.44980
S          2.69185       -0.26460       -0.53956
O          3.12820        0.32636        0.72422
O          1.85531        0.57110       -1.39938
O          2.00457       -1.65605       -0.29648
H          1.04632       -1.52990        0.06423
C          4.11789       -0.80016       -1.45099
H          3.77873       -1.29727       -2.35906
H          4.69201        0.09591       -1.68863
H          4.69722       -1.47463       -0.82118
N         -2.85468        1.20520       -1.66908
H         -2.65966        0.71075       -2.53464
C         -3.90543        2.20536       -1.86571
H         -4.84862        1.78594       -2.23816
H         -4.10837        2.70270       -0.91341
H         -3.56359        2.96521       -2.57373
H         -3.14414        0.49318       -0.99506
H         -1.22570        3.21226        1.00147
H         -1.69293        1.59794        1.61188
H          0.14446        2.64003        3.00964
H          0.64465        1.13210        2.24320
H          1.73026        3.72181        1.76963
H          2.28140        2.24818        1.25835
H         -1.36024        1.60571       -0.81180
H          0.29729        2.02452       -0.50916
C         -0.88333        2.18884        1.17734
C          0.37485        2.17512        2.04446
N         -0.54839        1.58563       -0.13019
N          1.46508        2.84576        1.34096
H         -0.32795        0.58470        0.02245
