32
2msa1a1dma_147.log	Energy: -953954.3975467
S         -2.38415       -0.85696        0.18206
O         -3.04531        0.21900       -0.58312
O         -2.13461       -0.57949        1.58843
O         -1.08383       -1.30577       -0.55400
H         -0.42228       -0.48531       -0.67364
C         -3.36544       -2.32519        0.02037
H         -4.31680       -2.12618        0.51430
H         -3.51092       -2.53039       -1.03951
H         -2.83762       -3.14107        0.51358
S          1.13842        1.43305        0.16741
O          2.50228        1.68461       -0.27785
O          0.30545        0.69956       -0.87289
O          0.37220        2.66018        0.56743
H         -0.93495        2.73463       -0.23087
C          1.18751        0.37075        1.59081
H          1.68988       -0.55712        1.28924
H          1.75679        0.89283        2.36102
H          0.16497        0.18360        1.92380
N         -1.78030        2.67674       -0.90552
H         -2.39663        3.47890       -0.81088
H         -2.29739        1.78974       -0.73008
H         -1.39893        2.63165       -1.84834
N          2.96447       -2.01771        0.09576
C          4.23770       -1.32325        0.24130
C          2.45882       -1.97430       -1.27015
H          3.06330       -2.98239        0.39241
H          4.08422       -0.25721        0.04584
H          4.60245       -1.43384        1.26676
H          5.01713       -1.69060       -0.44872
H          2.26671       -0.93375       -1.54693
H          3.16027       -2.39986       -2.00909
H          1.51131       -2.51700       -1.33020
