37
2msa1ma1eda_435.log	Energy: -1013354.6314511
S          1.50164        1.61814       -0.15313
O          2.83631        1.46571       -0.80286
O          1.43832        0.92501        1.15061
O          0.39344        1.20553       -1.07197
H         -0.29375       -0.17451       -1.14576
C          1.24508        3.35390        0.12680
H          2.02010        3.70401        0.80863
H          1.31022        3.86469       -0.83381
H          0.25092        3.46988        0.56502
S         -0.51565       -2.11688       -0.15778
O         -1.43001       -3.21742       -0.37380
O         -0.87006       -1.00771       -1.21948
O          0.92942       -2.40877       -0.23761
H          2.39582       -1.57607       -0.39605
C         -0.83353       -1.34811        1.40705
H         -1.87376       -1.00175        1.38855
H         -0.67819       -2.11428        2.16850
H         -0.12776       -0.52161        1.52778
N          3.34475       -1.14319       -0.36118
H          3.94239       -1.62895       -1.02612
C          3.86875       -1.21348        1.02472
H          4.86934       -0.78274        1.05425
H          3.19537       -0.62629        1.64923
H          3.88936       -2.25238        1.35296
H          3.23899       -0.13110       -0.64975
H         -4.16718        2.32301        0.79230
H         -3.48186        2.72454       -0.77313
H         -4.79945        0.73273       -1.04343
H         -3.09406        0.29361       -1.23089
H         -4.70122       -0.22091        1.16076
H         -3.99914       -1.30914        0.16547
H         -2.05216        1.42890        1.42919
H         -1.40882        1.75986       -0.02947
C         -3.43284        1.99595        0.04418
C         -3.84331        0.62676       -0.50556
N         -2.10644        2.06927        0.64370
N         -3.89764       -0.37902        0.56007
