37
2msa1ma1eda_426.log	Energy: -1013353.5166555
S          1.67880       -0.34955       -0.86201
O          2.85335       -0.01291       -1.64351
O          0.49213       -0.56322       -1.87085
O          1.26350        0.62212        0.16963
H         -0.14149        1.22263        0.91020
C          1.89275       -1.92045       -0.07297
H          2.74796       -1.80383        0.60029
H          0.96416       -2.16385        0.44963
H          2.11128       -2.64917       -0.85420
S         -2.23096       -1.27333        0.43831
O         -2.68419       -0.28797        1.45519
O         -1.20155       -2.21122        0.89738
O         -1.81984       -0.54325       -0.81914
H         -0.42105       -0.60582       -1.41348
C         -3.67100       -2.21922       -0.01373
H         -4.02067       -2.73786        0.87914
H         -4.43169       -1.53199       -0.38375
H         -3.37889       -2.93245       -0.78449
N          4.81465       -0.54986        0.75044
H          5.74123       -0.93316        0.90046
C          4.65229        0.71391        1.46690
H          5.37752        1.49294        1.18865
H          3.64839        1.10231        1.27498
H          4.74058        0.53533        2.54280
H          4.70109       -0.40023       -0.24843
H         -1.84511        3.63677        1.20684
H         -0.08660        3.61964        0.86843
H         -1.32209        3.96125       -1.19648
H         -0.51184        2.39651       -1.25116
H         -3.06919        2.68677       -1.83461
H         -2.57182        1.33797       -1.04457
H         -0.69126        1.84205        2.34973
H         -1.77355        1.16415        1.29938
C         -1.03444        3.09845        0.71191
C         -1.33381        2.95152       -0.77504
N         -0.91273        1.76254        1.35880
N         -2.64396        2.35197       -0.97956
