42
2msa2eda_582.log	Energy: -1072740.3206901
S         -0.33385        2.05253        0.62047
O          0.91980        2.53703        1.21451
O         -1.30358        1.46799        1.56521
O         -0.07374        1.10143       -0.53213
C         -1.13170        3.45738       -0.14486
H         -1.35480        4.18311        0.63778
H         -0.44857        3.88425       -0.87954
H         -2.05068        3.11537       -0.62233
S          3.71597       -0.67394       -0.57616
O          2.78003       -1.62600        0.01034
O          4.15133       -0.85209       -1.95011
O          5.04236       -0.71578        0.35723
H          5.80631       -0.86353       -0.21865
C          3.12461        0.96706       -0.29820
H          2.15996        1.05746       -0.80634
H          2.96426        1.11798        0.76951
H          3.85880        1.66717       -0.69585
H          0.20525       -2.46114        2.14007
H          0.06416       -0.68237        2.26167
H         -2.05083       -1.90970        2.99840
H         -2.28343       -0.74552        1.69742
H         -2.46238       -3.63240        1.48440
H         -3.19954       -2.45432        0.56605
H          0.91558       -1.72489        0.07923
H         -0.72939       -2.11504       -0.13771
C         -0.31901       -1.57670        1.76902
C         -1.83326       -1.71096        1.94287
N         -0.05298       -1.47598        0.31051
N         -2.33344       -2.73614        1.03248
H         -0.19327       -0.49176       -0.03746
H         -5.27529       -0.17973       -2.09713
H         -5.50437       -0.07970       -0.34541
H         -3.86214        1.56307       -1.13593
H         -3.12002        0.42608       -0.01236
H         -2.76961        0.38375       -2.91504
H         -1.63336        0.51231       -1.73243
H         -5.21218       -2.37900       -1.15501
H         -3.68415       -1.98432       -1.61273
C         -4.79024       -0.36738       -1.12403
C         -3.54995        0.51311       -1.01496
N         -4.42535       -1.77343       -0.94696
N         -2.52917        0.09122       -1.97306
