40
2msa1dma1eda_201.log	Energy: -1038020.6085734
S         -2.60673       -0.57195       -0.19865
O         -2.13099       -0.93651        1.14205
O         -2.02545       -1.41845       -1.27665
O         -2.45045        0.89494       -0.50448
C         -4.36906       -0.82498       -0.24960
H         -4.55928       -1.87790       -0.04067
H         -4.82233       -0.19099        0.51238
H         -4.72684       -0.55607       -1.24327
S          0.72104        2.28641        0.01289
O          2.08954        1.91334       -0.33177
O          0.22950        1.94198        1.34291
O         -0.21387        1.70131       -1.09403
H         -1.18134        1.36818       -0.77934
C          0.54341        4.04364       -0.20721
H          1.20688        4.53257        0.50671
H          0.82483        4.29070       -1.23065
H         -0.49636        4.30632       -0.01182
N          0.94907       -0.94241        1.82683
C          2.30794       -0.54101        2.17756
C          0.43907       -2.02483        2.66582
H          0.33036       -0.13424        1.89271
H          2.99836       -1.36486        1.95870
H          2.59459        0.32973        1.58354
H          2.40918       -0.28910        3.24315
H          1.02043       -2.93604        2.47957
H          0.51149       -1.79207        3.73802
H         -0.60672       -2.20491        2.41110
H          1.14795       -1.60953       -2.72961
H          1.02799       -0.12349       -1.76907
H          3.41154       -0.67370       -2.24555
H          3.06617       -0.71133       -0.52150
H          3.42828       -3.05518       -2.24199
H          4.14317       -2.71620       -0.81460
H         -0.38809       -1.87727       -0.92163
H          0.99178       -2.84878       -0.67835
C          1.38163       -1.15451       -1.76195
C          2.87133       -1.22591       -1.46604
N          0.63417       -1.89321       -0.71817
N          3.27780       -2.62829       -1.33367
H          0.77952       -1.45712        0.27374
