32
2msa2ma_70.log	Energy: -953964.0673484
S         -1.41773        1.51425        0.10579
O         -0.04804        1.56237        0.72606
O         -2.47005        1.26099        1.09247
O         -1.42396        0.55953       -1.04273
C         -1.69185        3.13145       -0.59133
H         -0.91177        3.32748       -1.32713
H         -2.67577        3.13495       -1.06072
H         -1.65144        3.85763        0.22070
S          2.75994       -0.29958       -0.04268
O          2.19995       -1.40980       -0.82648
O          2.76159       -0.46668        1.40397
O          2.08557        1.05038       -0.45576
H          1.18134        1.24978        0.03435
C          4.40970       -0.00294       -0.62708
H          4.36514        0.19069       -1.69837
H          4.81736        0.85079       -0.08693
H          4.98448       -0.90597       -0.41993
N         -0.47868       -1.80158       -0.02477
H         -0.65834       -0.85444       -0.42916
H         -1.29138       -2.34648       -0.39385
C         -0.47441       -1.73988        1.45684
H         -0.43148       -2.75214        1.85931
H          0.39383       -1.16986        1.78790
H         -1.38340       -1.23623        1.78632
H          0.42989       -2.10500       -0.39267
N         -3.04531       -2.30233       -1.04716
H         -2.92966       -1.55390       -1.72704
C         -3.91492       -1.82997        0.04203
H         -4.94102       -1.61528       -0.28053
H         -3.95281       -2.58787        0.82942
H         -3.49481       -0.91140        0.46107
H         -3.46911       -3.08652       -1.53194
