26
2msa2a_42.log	Energy: -904639.8447673
S         -2.39340        0.20606       -0.14463
O         -2.18314       -0.70363        1.00133
O         -2.52207       -0.41849       -1.44810
O         -1.31242        1.33225       -0.13170
H         -0.35938        1.03831       -0.44497
C         -3.83243        1.17734        0.22392
H         -4.67524        0.48689        0.26463
H         -3.68327        1.66846        1.18476
H         -3.96516        1.90464       -0.57653
S          1.80936       -0.37834       -0.34004
O          1.01426        0.78403       -0.85203
O          1.37339       -1.66928       -0.93348
O          1.81402       -0.43379        1.14953
H          0.63466       -1.79590        1.67794
C          3.47187       -0.06424       -0.87452
H          3.46470       -0.00049       -1.96272
H          3.78452        0.87881       -0.41834
H          4.09082       -0.89608       -0.53769
N         -0.06514       -2.41746        1.23110
H         -0.96063       -1.88485        1.16804
H         -0.17584       -3.30544        1.70967
H          0.32176       -2.51632        0.26857
N          2.89414        2.60047        0.99181
H          3.03542        3.46938        1.49412
H          2.58928        1.89062        1.65196
H          2.13107        2.73018        0.33415
