37
2msa1ma1eda_203.log	Energy: -1013362.7886726
S         -2.55130       -0.03806        0.28026
O         -3.95190        0.28872        0.12492
O         -1.57061        1.04321        0.09790
O         -2.22596       -1.21291       -0.71204
C         -2.27000       -0.75080        1.88400
H         -2.49788        0.01998        2.62164
H         -2.94608       -1.59861        1.99522
H         -1.22124       -1.05495        1.93690
S          1.34726       -1.64297       -0.06432
O          0.85642       -1.24139        1.27650
O          2.39045       -0.73386       -0.59036
O          0.22347       -1.82877       -1.03581
H         -1.23000       -1.42164       -0.79283
C          2.10094       -3.24851        0.10392
H          1.34591       -3.94259        0.47335
H          2.46343       -3.55810       -0.87632
H          2.92592       -3.16005        0.81103
N          0.94353        1.91153       -3.05591
H          0.70992        2.75039       -3.57747
C         -0.12616        0.90468       -3.18612
H         -0.34779        0.63980       -4.22623
H          0.16631       -0.00143       -2.64923
H         -1.03666        1.28801       -2.71941
H          1.80812        1.55193       -3.44968
H          2.25492        3.26712        0.55840
H          0.49811        3.58232        0.49076
H          1.25636        3.16468        2.80940
H          0.09960        1.94068        2.27515
H          2.40274        1.30137        3.39021
H          1.83092        0.37642        2.16113
H          1.12573        2.01344       -1.27157
H          1.81086        0.98241       -0.15292
C          1.26394        2.83364        0.70937
C          1.12648        2.31209        2.13587
N          1.09719        1.72562       -0.25741
N          2.14889        1.31220        2.41093
H          0.17202        1.28316       -0.11702
