42
2msa2eda_163.log	Energy: -1072760.0954336
S         -3.09525       -0.70526       -0.34898
O         -2.30543       -1.67141       -1.16303
O         -2.79184        0.70231       -0.64903
O         -2.95910       -1.00840        1.11696
H         -1.73409       -0.16462        1.78514
C         -4.80545       -1.00854       -0.74475
H         -5.02876       -2.05092       -0.51796
H         -5.41728       -0.33857       -0.14071
H         -4.94419       -0.80619       -1.80694
S          0.86341        2.49671       -0.12043
O          1.92857        3.49220       -0.14864
O          0.07980        2.47476        1.16084
O          1.33743        1.10493       -0.43757
H          0.54079       -0.29562       -0.30599
C         -0.32410        2.89469       -1.39022
H         -0.70537        3.89563       -1.18547
H          0.19167        2.87277       -2.35085
H         -1.13187        2.16021       -1.35252
H          4.35789       -1.45143       -2.01299
H          2.92583       -0.40999       -1.86394
H          4.48127        0.01024       -0.03020
H          2.95124       -0.60884        0.55965
H          5.41037       -2.19563        0.30049
H          4.57458       -1.87567        1.66040
H          2.43271       -2.81139       -2.32415
H          3.00187       -3.14726       -0.81939
C          3.45207       -1.25893       -1.41872
C          3.85054       -0.88763        0.00333
N          2.55978       -2.43007       -1.39210
N          4.47543       -2.03763        0.66472
H          1.20024       -0.07806        2.07991
H          0.32389       -1.14024        3.19987
H          1.02782       -2.45931        1.35038
H         -0.74274       -2.33140        1.30488
H          1.02634       -1.83226       -0.73645
H         -0.65615       -1.45197       -0.70923
H         -1.07504        0.61837        3.11704
H         -0.58587        1.16406        1.62825
C          0.28880       -0.66575        2.21687
C          0.19012       -1.77727        1.17787
N         -0.85907        0.28155        2.18129
N          0.26058       -1.30953       -0.22836
