35
2msa1a1tma_36.log	Energy: -978626.1534665
S          2.24537       -1.05635        0.09557
O          3.01579       -1.80008        1.07351
O          2.90111        0.01131       -0.65732
O          0.99255       -0.36602        0.78840
C          1.49451       -2.19861       -1.04673
H          2.30420       -2.61313       -1.64838
H          0.99642       -2.97990       -0.47221
H          0.76275       -1.66912       -1.65949
S         -2.04218       -0.92957       -0.10991
O         -1.64915       -1.11067       -1.51743
O         -2.18232        0.49568        0.28377
O         -1.13490       -1.66182        0.84664
H          0.16019       -0.98433        0.89173
C         -3.63436       -1.69712        0.11494
H         -4.33939       -1.20521       -0.55544
H         -3.53847       -2.75405       -0.13346
H         -3.93254       -1.56965        1.15543
N         -0.43100        1.68781        2.43675
H          0.28529        1.00246        2.66009
H         -1.25594        1.16765        2.13835
H         -0.66235        2.18096        3.29240
N          0.11828        2.28307       -0.44990
C          1.40095        2.91845       -0.05255
H          1.28175        3.30883        0.95761
H          2.18217        2.15787       -0.07740
H          1.62618        3.72051       -0.75869
C          0.21199        1.63040       -1.78327
H          1.10120        1.00021       -1.79204
H         -0.68194        1.02592       -1.94124
H          0.29874        2.41128       -2.54200
C         -1.01818        3.23436       -0.38387
H         -1.92901        2.68960       -0.62892
H         -1.08094        3.61195        0.63621
H         -0.83630        4.04576       -1.09167
H         -0.07807        1.55891        0.25880
