40
2msa1dma1eda_385.log	Energy: -1038016.7650465
S         -1.79296       -0.39695        0.55934
O         -1.14435        0.56683        1.47238
O         -2.18721        0.17054       -0.75439
O         -3.00246       -1.04251        1.20863
H         -4.21673       -0.71965        0.51244
C         -0.64119       -1.72083        0.28811
H         -1.08270       -2.41927       -0.42334
H          0.29516       -1.30344       -0.08940
H         -0.46167       -2.20676        1.24715
S          3.55046       -0.70662       -0.15111
O          3.38415       -0.44279       -1.59449
O          2.54880       -1.62015        0.42978
O          3.67179        0.56698        0.64968
H          2.30458        1.20712        1.06594
C          5.14720       -1.48946        0.03919
H          5.90827       -0.81679       -0.35687
H          5.31297       -1.68078        1.09956
H          5.13023       -2.42410       -0.52240
N         -5.12465       -0.44190       -0.06564
C         -5.02094       -1.06728       -1.40426
C         -5.19777        1.03677       -0.10702
H         -5.92952       -0.81634        0.43368
H         -4.09506       -0.70898       -1.85588
H         -4.96938       -2.14946       -1.28136
H         -5.88564       -0.79659       -2.01401
H         -4.27950        1.39411       -0.57494
H         -6.07467        1.35391       -0.67552
H         -5.25186        1.41389        0.91467
H          0.12491        3.13546        0.38194
H          1.83571        3.62579        0.48952
H          1.11774        3.00681       -1.86297
H          2.49380        2.07723       -1.25189
H         -0.19308        1.01085       -1.63742
H          1.32913        0.31961       -1.84180
H          1.38969        2.07948        2.21621
H          0.59654        1.04716        1.19815
C          1.15850        2.79693        0.26808
C          1.41896        2.23952       -1.13448
N          1.38269        1.71863        1.26560
N          0.76007        0.96079       -1.29905
