30
2msa1eda_159.log	Energy: -953184.2001931
S         -2.15110       -0.65289        0.09443
O         -1.36492       -0.93163       -1.11673
O         -2.46987        0.73118        0.38778
O         -1.44406       -1.34946        1.32887
H         -0.45385       -1.21378        1.27570
C         -3.64035       -1.61141        0.03550
H         -3.37765       -2.65256       -0.14707
H         -4.15508       -1.49070        0.98852
H         -4.24066       -1.20879       -0.78089
S          2.02428       -1.18056       -0.09679
O          2.57907       -2.51531       -0.10110
O          1.10082       -0.82436        1.00192
O          1.28585       -0.88351       -1.47123
H          0.29779       -0.89783       -1.36530
C          3.31204        0.03201       -0.14872
H          2.86219        1.02014       -0.00584
H          3.99088       -0.20236        0.67232
H          3.82086       -0.06873       -1.10753
H          0.13114        1.37377       -0.63222
H          1.07056        2.71575       -1.29135
H          0.59126        4.09694        0.63600
H         -0.59972        2.94179        1.24341
H          1.73529        2.84394        2.21980
H          1.16424        1.41394        1.67699
H         -1.01519        2.82576       -2.32491
H         -1.83183        2.67423       -0.92056
C          0.18074        2.47168       -0.70042
C          0.35673        3.03064        0.70604
N         -0.99004        3.05984       -1.33895
N          1.45985        2.34171        1.38325
