40
2msa1dma1eda_29.log	Energy: -1038038.0329112
S          2.33721        0.85269       -0.36431
O          2.36447       -0.17082       -1.44390
O          1.73183        0.33097        0.88581
O          1.70574        2.13331       -0.78823
C          4.04116        1.23856       -0.00979
H          4.53509        0.32251        0.31487
H          4.49970        1.62359       -0.92063
H          4.06255        1.98873        0.78072
S         -2.67835       -0.51760       -0.22046
O         -2.33516       -1.32285       -1.41873
O         -2.87441        0.92960       -0.51879
O         -1.71228       -0.72323        0.89203
C         -4.26114       -1.11154        0.34716
H         -4.98905       -0.95121       -0.44837
H         -4.16338       -2.17406        0.57023
H         -4.53657       -0.55278        1.24171
N         -0.79759        2.50605        0.26161
C         -1.17033        3.87987       -0.12793
C         -0.68132        2.29748        1.72170
H         -1.52715        1.84788       -0.10441
H         -0.40926        4.57586        0.22818
H         -1.23471        3.93154       -1.21472
H         -2.13934        4.12556        0.30914
H          0.10283        2.94750        2.11271
H         -1.63993        2.52890        2.18896
H         -0.42261        1.25361        1.89117
H          0.12215        2.27434       -0.18138
H         -0.10790       -3.76136        0.03018
H          0.96005       -3.74495       -1.38889
H          2.24238       -4.30537        0.64162
H          2.80133       -2.78225       -0.04001
H          1.77940       -1.58345        1.66934
H          0.98528       -2.91400        2.26860
H         -0.55670       -1.82324       -1.30465
H          0.02627       -1.38082        0.13498
C          0.73840       -3.25128       -0.43905
C          1.96377       -3.25728        0.48203
N          0.30539       -1.86663       -0.73260
N          1.80290       -2.59669        1.76067
H          1.06814       -1.29774       -1.16095
