40
2msa1dma1eda_366.log	Energy: -1038017.0656047
S          0.72295        2.36347        0.10489
O          0.81146        3.70762        0.62788
O          0.02212        1.47195        1.20209
O          1.97662        1.69997       -0.30523
H          2.66463        0.18560       -0.00927
C         -0.38180        2.30034       -1.28085
H         -1.35235        2.70153       -0.98340
H          0.06716        2.90607       -2.06908
H         -0.48126        1.25599       -1.58852
S         -0.13055       -1.77946       -0.47040
O          1.17479       -2.27671       -0.99337
O         -0.90452       -0.97978       -1.42847
O          0.08652       -1.05460        0.83656
H          0.04622        0.47682        0.99013
C         -1.07436       -3.23048       -0.05207
H         -1.29987       -3.75404       -0.98153
H         -0.45982       -3.85199        0.59928
H         -1.98663       -2.92261        0.46434
N          3.11143       -0.74978        0.08685
C          3.26085       -1.06233        1.52358
C          4.36986       -0.76343       -0.68417
H          2.41728       -1.41525       -0.34414
H          3.88849       -0.30462        1.99529
H          2.26600       -1.06480        1.96902
H          3.71851       -2.04708        1.63103
H          5.05084       -0.01079       -0.28382
H          4.82506       -1.75248       -0.61380
H          4.14332       -0.53674       -1.72584
H         -2.28771        0.96103        0.45270
H         -3.91545        1.46070        0.87354
H         -4.78040       -0.80147        0.38099
H         -3.26679       -1.23120       -0.40294
H         -2.22026       -0.99831        1.80823
H         -3.70393       -0.83364        2.47629
H         -3.03803        0.68958       -1.81675
H         -4.51833        1.27297       -1.43121
C         -3.34189        0.81923        0.19331
C         -3.69417       -0.65602        0.42681
N         -3.53761        1.29672       -1.17171
N         -3.20553       -1.22134        1.68232
