30
2msa1eda_30.log	Energy: -953206.5877292
S          0.91508        1.64223        0.03112
O          1.96291        1.10315        0.91566
O         -0.37267        1.93441        0.71499
O          0.70577        0.77908       -1.17796
C          1.48791        3.21358       -0.58186
H          1.61655        3.87863        0.27221
H          2.43719        3.05344       -1.09312
H          0.73916        3.60835       -1.26853
S         -2.70312       -0.63442        0.12004
O         -4.03000       -1.15683        0.36268
O         -1.58947       -1.58410        0.02092
O         -2.40058        0.41732        1.25629
H         -1.55425        0.93955        1.08602
C         -2.69591        0.34937       -1.36461
H         -2.95895       -0.31755       -2.18678
H         -3.44345        1.13474       -1.25371
H         -1.69301        0.76037       -1.50189
H          2.35513       -3.40068       -0.63926
H          2.33119       -2.21920       -1.97634
H          4.40694       -2.05809       -0.47198
H          3.48657       -0.55410       -0.60609
H          3.96393       -1.99718        1.76154
H          3.08098       -0.60434        1.56210
H          0.20057       -2.31307       -0.55983
H          1.15617       -1.72327        0.65898
C          2.31755       -2.33807       -0.89107
C          3.46096       -1.57452       -0.21031
N          1.05168       -1.78439       -0.36394
N          3.22982       -1.55216        1.22933
H          0.88276       -0.80294       -0.71330
