42
2msa2eda_122.log	Energy: -1072768.7991468
S          2.65850        1.19575       -0.12230
O          3.55121        0.02275       -0.11879
O          2.50426        1.87878        1.17631
O          1.30113        0.86738       -0.70483
H          0.14758        1.11333        0.57863
C          3.36235        2.37612       -1.26087
H          4.33929        2.66815       -0.87448
H          3.46116        1.89795       -2.23547
H          2.69500        3.23602       -1.31772
S         -2.99092        0.57901       -0.54657
O         -1.99739        1.55112       -1.02822
O         -2.93788        0.44177        0.95145
O         -2.90219       -0.74769       -1.21437
H         -1.16163       -1.25827       -1.33676
C         -4.61691        1.21190       -0.91157
H         -4.72682        2.17444       -0.41205
H         -4.69642        1.32830       -1.99264
H         -5.35422        0.49757       -0.54526
H         -0.00734       -3.49313       -1.43480
H          0.36224       -2.40207       -2.78485
H          2.44426       -3.41787       -1.82231
H          2.43370       -1.65726       -1.72147
H          2.40199       -3.47453        0.47814
H          2.83693       -1.87920        0.38093
H         -0.32774       -1.70280        0.01592
H          0.36250       -0.58733       -1.02927
C          0.48574       -2.55689       -1.71012
C          1.96473       -2.56387       -1.32678
N         -0.20252       -1.45997       -0.99366
N          2.13186       -2.56635        0.12285
H         -1.36109       -0.63636        3.47305
H         -0.04279       -1.80758        3.40220
H          0.91881        0.38839        3.13250
H          1.09253       -0.53995        1.64428
H         -1.31531        0.91748        1.40615
H         -0.10558        1.95236        1.96179
H         -1.49661       -2.76240        1.96923
H         -2.11654       -1.34345        1.41795
C         -0.62276       -1.09965        2.80313
C          0.36877       -0.05911        2.30452
N         -1.25451       -1.81814        1.69257
N         -0.28480        1.04849        1.53055
