35
2msa1a1tma_19.log	Energy: -978628.3874504
S         -0.51955        2.12461       -0.08049
O         -1.92938        1.79664        0.18533
O         -0.00204        1.70551       -1.39183
O          0.34944        1.59125        1.05081
H          1.70759        0.90606        0.78278
C         -0.34650        3.89655        0.01737
H         -0.96064        4.33295       -0.77079
H         -0.68865        4.22273        0.99944
H          0.70436        4.14490       -0.13194
S          2.51318       -0.97896        0.01155
O          3.79233       -1.63228        0.18292
O          2.60758        0.43484        0.70107
O          1.30709       -1.67399        0.49341
H         -0.00866       -1.28143        1.73333
C          2.24836       -0.59516       -1.70299
H          3.13552       -0.07659       -2.06653
H          2.11517       -1.54285       -2.22639
H          1.36376        0.04294       -1.78237
N         -0.86725       -0.73906        1.90447
H         -0.59303        0.25240        1.75324
H         -1.22615       -0.88228        2.84273
H         -1.58671       -1.03478        1.13304
N         -2.46672       -1.61531       -0.11391
C         -3.74021       -0.90111       -0.22148
H         -4.31505       -1.03990        0.69920
H         -3.53866        0.16346       -0.35460
H         -4.33970       -1.27359       -1.06732
C         -1.64168       -1.40384       -1.30817
H         -1.48427       -0.33453       -1.46177
H         -0.66828       -1.87989       -1.16055
H         -2.12093       -1.83069       -2.20333
C         -2.66968       -3.04157        0.12939
H         -1.70008       -3.53414        0.24917
H         -3.25206       -3.18321        1.04500
H         -3.20579       -3.52641       -0.70177
