42
2msa2eda_374.log	Energy: -1072752.5643222
S         -0.32333       -1.97785       -0.87892
O         -1.45852       -2.89752       -0.91276
O          0.13132       -1.70282        0.53797
O         -0.53965       -0.69881       -1.61486
H         -1.41854        0.64524       -1.21033
C          1.06762       -2.75238       -1.67631
H          1.26945       -3.69001       -1.15758
H          0.79348       -2.94035       -2.71465
H          1.91532       -2.06855       -1.60915
S          2.95079        0.35197        0.70436
O          3.39547        1.71835        0.91601
O          2.98628       -0.20885       -0.64235
O          1.48995        0.24539        1.28352
H          0.96133       -0.56877        0.91046
C          3.88188       -0.72461        1.77667
H          4.91996       -0.69847        1.44351
H          3.79306       -0.35105        2.79657
H          3.47306       -1.73188        1.68983
H         -5.07200        0.15909        1.97126
H         -5.25030        0.06531        0.21274
H         -3.88654       -1.81488        1.13545
H         -3.00999       -0.86893       -0.04409
H         -2.60063       -0.78321        2.84033
H         -1.50896       -0.99450        1.63946
H         -4.63363        2.29425        0.90996
H         -3.27191        1.69937        1.61604
C         -4.52835        0.23670        1.01729
C         -3.43581       -0.82811        0.96247
N         -3.92709        1.56865        0.84610
N         -2.36002       -0.49639        1.89675
H         -1.07593        3.16058        0.30298
H         -0.45197        1.54480        0.71562
H          1.34099        2.93231       -0.35909
H          0.92908        1.52021       -1.32908
H          0.20733        4.28217       -1.92745
H          0.76020        3.11324       -2.92275
H         -2.64829        1.59563       -0.45228
H         -1.77026        2.16948       -1.81835
C         -0.67444        2.22735       -0.10508
C          0.55188        2.48285       -0.97108
N         -1.72603        1.61586       -0.95596
N          0.15328        3.28993       -2.13124
