28
2msa1dma_63.log	Energy: -918452.0157045
S         -0.59646        1.11689        0.18101
O          0.55082        1.99915       -0.08388
O         -0.58176        0.39883        1.44648
O         -0.72754        0.09009       -1.02984
H          0.15022       -0.37219       -1.12748
C         -2.10384        2.01087       -0.02061
H         -2.15645        2.71689        0.80891
H         -2.06146        2.53181       -0.97683
H         -2.91660        1.27107        0.00880
S          2.90150       -0.60143       -0.21087
O          4.17722       -1.14216       -0.60788
O          1.70838       -0.96026       -0.99229
O          3.04047        0.98019       -0.19516
H          2.14893        1.41739       -0.16953
C          2.57035       -1.00062        1.48997
H          2.48496       -2.08637        1.55062
H          3.41015       -0.64540        2.08694
H          1.63335       -0.52422        1.78691
N         -3.74393       -0.76612       -0.23417
C         -5.02837       -1.01146       -0.87268
C         -3.59117       -1.48483        1.02440
H         -2.99198       -1.03103       -0.86316
H         -5.82910       -0.61474       -0.23950
H         -5.07079       -0.49173       -1.83365
H         -5.23506       -2.08133       -1.04468
H         -4.32623       -1.11105        1.74539
H         -3.74098       -2.57307        0.92456
H         -2.59472       -1.30099        1.43360
