28
2msa1dma_27.log	Energy: -918463.1608625
S          2.11170       -0.88389       -0.10697
O          2.54243        0.41349       -0.73725
O          1.53609       -1.83613       -1.06521
O          1.24581       -0.61252        1.07374
C          3.61907       -1.60968        0.51697
H          4.28833       -1.77972       -0.32670
H          4.06640       -0.91927        1.23209
H          3.36430       -2.55378        0.99924
S         -2.59145       -0.40658       -0.11164
O         -1.85768        0.82399       -0.38272
O         -3.75230       -0.73186       -0.92017
O         -3.09926       -0.28640        1.42815
H         -4.03684       -0.52610        1.45000
C         -1.46477       -1.76253       -0.01654
H         -0.98122       -1.86325       -0.99050
H         -0.69608       -1.52057        0.72271
H         -2.03614       -2.65436        0.24060
N          0.63595        2.11000       -0.06685
C          0.46444        3.21147       -1.03249
C          0.88018        2.53364        1.32734
H         -0.20330        1.51177       -0.08948
H          1.37324        3.81506       -1.05003
H          0.29071        2.78340       -2.01955
H         -0.38865        3.82714       -0.74221
H          1.78601        3.14141        1.35886
H          0.02802        3.11139        1.68999
H          1.01664        1.62908        1.92053
H          1.43859        1.47331       -0.37380
