37
2msa1ma1eda_584.log	Energy: -1013338.1401258
S          1.58609       -0.03267        0.01684
O          0.51199       -0.16419       -0.98411
O          2.54205        1.04724       -0.22123
O          2.35781       -1.38919        0.11624
H          3.37887       -1.27225       -0.25172
C          0.84198        0.13483        1.60888
H          0.17877        1.01288        1.57403
H          0.24826       -0.76141        1.79994
H          1.64130        0.25212        2.34099
S         -2.46482       -1.46575        0.08904
O         -3.00331       -0.11757       -0.05632
O         -1.81128       -1.80630        1.34535
O         -1.50883       -1.80080       -1.13244
H         -0.69208       -1.21771       -1.09559
C         -3.74629       -2.64658       -0.25046
H         -4.49683       -2.52484        0.53112
H         -4.16954       -2.42783       -1.23021
H         -3.31054       -3.64450       -0.21735
N          4.72616       -0.99133       -0.68277
H          5.19509       -1.78141       -1.11608
C          5.49207       -0.47122        0.46203
H          6.50693       -0.16699        0.18894
H          4.95555        0.38956        0.86445
H          5.54545       -1.24225        1.23295
H          4.61790       -0.26702       -1.38922
H         -2.38959        4.02550        0.34816
H         -0.79221        4.22450        1.10022
H         -0.53643        4.11589       -1.28188
H          0.18791        2.67160       -0.55844
H         -1.20467        2.19802       -2.50301
H         -1.88417        1.50519       -1.20437
H         -1.98832        2.58230        2.29945
H         -2.23747        1.66381        0.98014
C         -1.43494        3.52019        0.55980
C         -0.76847        3.17731       -0.76539
N         -1.59102        2.32871        1.40088
N         -1.66485        2.40533       -1.62318
