28
2msa1dma_36.log	Energy: -918461.1731635
S         -2.11079       -0.90435        0.02225
O         -3.37133       -1.25730        0.66933
O         -0.98100       -0.61825        0.95416
O         -2.22839        0.22237       -0.97288
H         -1.29558        1.35807       -0.48642
C         -1.60157       -2.31726       -0.94949
H         -1.50678       -3.17044       -0.27632
H         -2.37036       -2.51016       -1.69820
H         -0.64694       -2.08508       -1.42290
S          2.51061       -0.28772        0.06786
O          1.99688        1.04010        0.37661
O          3.92765       -0.46366       -0.19131
O          1.71541       -0.78394       -1.26115
H          2.37301       -1.10040       -1.89768
C          1.92908       -1.43515        1.28185
H          2.26977       -2.43040        0.99642
H          2.37497       -1.13162        2.23043
H          0.83544       -1.35490        1.30904
N         -0.63907        2.09659       -0.06442
C         -1.23448        2.57284        1.20173
C         -0.36379        3.15500       -1.05203
H          0.23097        1.59031        0.14982
H         -2.19237        3.04826        0.98569
H         -1.39022        1.70284        1.83995
H         -0.55951        3.28537        1.67991
H         -1.30004        3.65111       -1.31187
H          0.33935        3.87873       -0.63565
H          0.06548        2.69797       -1.94361
