34
2msa1a1eda_239.log	Energy: -988695.0288022
S          1.58930       -1.72365       -0.14515
O          0.41255       -2.28079        0.57335
O          2.64195       -1.21374        0.75363
O          1.17176       -0.71014       -1.16780
C          2.30021       -3.07551       -1.07080
H          2.59803       -3.84701       -0.36053
H          1.54834       -3.45668       -1.76211
H          3.16680       -2.69723       -1.61331
S         -2.80592        0.20827       -0.13880
O         -3.18999       -0.05472        1.23384
O         -1.92533        1.33361       -0.43532
O         -4.16636        0.46318       -0.99421
H         -4.11369        1.35116       -1.37560
C         -2.21354       -1.27904       -0.88654
H         -1.32991       -1.60571       -0.32295
H         -3.01221       -2.01859       -0.82286
H         -1.94560       -1.05930       -1.91943
N         -0.31313       -0.05202        2.51110
H          0.09954       -0.02856        3.43762
H         -0.07787       -0.95624        2.09122
H         -1.32483       -0.01652        2.61071
H          2.10459        2.63633        1.61300
H          2.71699        1.04564        1.07178
H          3.82463        2.85739       -0.21963
H          2.80533        1.85705       -1.25845
H          2.16724        4.56062       -0.33197
H          2.10429        3.95313       -1.84892
H          0.30489        1.05438        1.27825
H          0.23392        2.27509        0.07446
C          2.16006        1.93665        0.77316
C          2.78331        2.59391       -0.44934
N          0.78628        1.50052        0.44435
N          1.95978        3.72773       -0.87238
H          0.82799        0.75210       -0.28625
