43
2msa1eda1tma_159.log	Energy: -1062676.3948917
S         -2.50536       -1.66829       -0.00261
O         -3.61418       -2.56559        0.31093
O         -2.03901       -0.79122        1.10179
O         -2.75794       -0.82264       -1.23610
H         -2.20545        0.60395       -0.96169
C         -1.10301       -2.68842       -0.44420
H         -0.90451       -3.35778        0.39453
H         -1.36816       -3.26418       -1.33186
H         -0.24493       -2.03925       -0.62879
S          1.47081        0.56410        0.78165
O          1.51170       -0.49463       -0.25446
O          0.61960        1.72218        0.42592
O          2.87366        1.00255        1.12986
H          3.84468        0.41260        0.15060
C          0.79975       -0.14419        2.26580
H         -0.21614       -0.48331        2.03666
H          1.43891       -0.97682        2.56174
H          0.79644        0.63020        3.03331
H         -4.05821        2.90225       -1.45988
H         -4.79183        3.16881        0.11981
H         -2.46624        3.19329        0.53177
H         -2.98171        1.56819        1.06805
H         -1.78866        2.14185       -1.55782
H         -0.96226        1.53858       -0.24757
H         -5.87388        1.31796       -1.00392
H         -4.49005        0.41935       -0.91547
C         -4.23370        2.43360       -0.47055
C         -2.88500        2.23671        0.20978
N         -4.99891        1.20232       -0.50859
N         -1.89698        1.59989       -0.70252
N          4.55649       -0.00825       -0.55494
C          4.07539        0.34862       -1.91095
H          3.07508       -0.06817       -2.03196
H          4.02433        1.43543       -1.98870
H          4.76514       -0.05090       -2.65896
C          5.87174        0.59451       -0.25159
H          5.79672        1.67624       -0.36687
H          6.13737        0.36177        0.78017
H          6.62789        0.19674       -0.93317
C          4.54419       -1.47490       -0.34216
H          4.85912       -1.68154        0.68147
H          3.52087       -1.82333       -0.48544
H          5.22726       -1.95350       -1.04859
