34
2msa1a1eda_224.log	Energy: -988699.7515954
S         -2.17462       -0.76448       -0.22661
O         -1.44252       -0.38031       -1.44211
O         -2.93416        0.32212        0.42210
O         -1.25501       -1.42437        0.78857
H         -0.84032       -0.16909        1.98473
C         -3.34173       -2.03349       -0.67606
H         -4.03901       -1.60431       -1.39600
H         -2.79110       -2.86225       -1.12147
H         -3.86399       -2.35357        0.22535
S          2.18797       -1.26965        0.01216
O          3.47237       -1.93184       -0.01546
O          1.98689       -0.21000        1.01967
O          1.08752       -2.38473        0.22423
H          0.16647       -2.00205        0.39598
C          1.80467       -0.58352       -1.57921
H          2.37183        0.34385       -1.67821
H          2.08571       -1.32385       -2.32811
H          0.73216       -0.37414       -1.61568
N         -0.25138        0.61857        2.32498
H          0.71826        0.32417        2.12352
H         -0.40111        0.80474        3.31130
H         -0.48198        1.47113        1.71145
H          0.84695        4.33412        0.17541
H          1.09876        4.07646       -1.55171
H         -1.15376        3.58455       -1.30099
H         -0.42790        1.97529       -1.26751
H         -1.33816        3.50583        1.05567
H         -1.95732        2.10648        0.46091
H          2.82026        2.99594       -0.20064
H          1.71933        1.92568        0.36013
C          0.88304        3.55874       -0.61086
C         -0.49738        2.92138       -0.72288
N          1.92716        2.56153       -0.40376
N         -1.08877        2.63153        0.59951
