40
2msa1dma1eda_363.log	Energy: -1038015.8560740
S         -0.73782        1.73382        0.12250
O          0.72197        1.93098        0.37232
O         -1.44212        1.11044        1.26055
O         -1.00559        1.02031       -1.15786
C         -1.38739        3.38202       -0.07891
H         -1.19525        3.93533        0.84043
H         -0.88568        3.84888       -0.92646
H         -2.45926        3.30125       -0.26242
S          3.37714       -0.13419       -0.15554
O          2.67868       -0.49315       -1.38237
O          4.40709       -1.01602        0.35988
O          2.32196        0.04739        1.02331
H          1.62535        0.75120        0.78441
C          4.02445        1.51404       -0.34446
H          3.19285        2.17545       -0.59267
H          4.49696        1.80538        0.59325
H          4.75419        1.48231       -1.15405
N         -4.33329       -0.99494       -0.14624
C         -4.40321       -0.03254       -1.24863
C         -4.49910       -0.35548        1.16317
H         -5.05105       -1.70160       -0.27071
H         -3.54095        0.63967       -1.19335
H         -4.35312       -0.56257       -2.20338
H         -5.32318        0.57008       -1.22687
H         -3.66200        0.32921        1.33234
H         -5.44096        0.20747        1.23965
H         -4.48191       -1.11807        1.94610
H         -1.52151       -3.59184       -0.21477
H         -1.07572       -2.80206       -1.74510
H          0.94006       -3.74765       -0.50661
H          1.04754       -2.01187       -0.77701
H          0.72066       -3.33611        1.76024
H          1.30839       -1.83396        1.42039
H         -2.62329       -1.48534       -0.15622
H         -1.22311       -1.36719        0.80314
C         -0.96865       -2.75897       -0.65924
C          0.50050       -2.78361       -0.22665
N         -1.56754       -1.50395       -0.15973
N          0.57594       -2.50324        1.20449
H         -1.25937       -0.65967       -0.68975
