32
2msa2ma_47.log	Energy: -953969.6516933
S         -1.40116        1.36230        0.01918
O         -0.72021        1.16508        1.31644
O         -2.63023        0.57301       -0.15965
O         -0.45125        1.12570       -1.13893
C         -1.83612        3.08743       -0.08490
H         -2.52977        3.30518        0.72750
H         -0.92477        3.67684        0.01688
H         -2.30620        3.26195       -1.05258
S          2.59874       -0.17883       -0.04585
O          3.99298       -0.41751       -0.35318
O          1.64119       -1.28052       -0.18273
O          2.11955        1.03490       -0.94134
H          1.11027        1.10098       -0.97660
C          2.45229        0.46647        1.60505
H          2.75322       -0.32616        2.29141
H          3.12497        1.32004        1.68948
H          1.41163        0.76087        1.76208
N         -0.80008       -1.66957       -1.35061
H         -0.61438       -0.65420       -1.45062
H          0.03504       -2.16006       -1.66532
C         -2.03774       -2.05906       -2.05118
H         -2.24949       -3.11158       -1.85876
H         -2.84263       -1.43558       -1.66110
H         -1.93058       -1.89471       -3.12392
H         -0.88159       -1.82794       -0.27927
N         -1.02990       -1.87562        1.37154
H         -0.34532       -2.49223        1.79779
C         -2.38053       -2.12385        1.88727
H         -2.45762       -2.01235        2.97543
H         -3.05967       -1.40883        1.41772
H         -2.69668       -3.13649        1.62031
H         -0.75135       -0.91629        1.58746
