29
2msa1a1ma_131.log	Energy: -929291.4923406
S         -2.64427       -0.36505        0.29972
O         -2.02568       -0.54381        1.60242
O         -2.39337        0.88682       -0.42144
O         -4.21305       -0.55317        0.43433
H         -4.70214        0.29211        0.11049
C         -2.19691       -1.73548       -0.73369
H         -1.11322       -1.68651       -0.86859
H         -2.48934       -2.65227       -0.22182
H         -2.71472       -1.63251       -1.68696
S          1.82182       -0.08407       -0.35261
O          0.96955       -1.07998       -0.98613
O          2.64741        0.76779       -1.21167
O          2.76708       -0.79220        0.69490
H          3.77347       -0.63088        0.43464
C          0.81450        0.93646        0.69273
H          0.08581        1.43765        0.05327
H          0.29071        0.29700        1.40453
H          1.46028        1.65444        1.19783
N         -5.26716        1.70114       -0.43721
H         -5.62952        2.31378        0.28610
H         -5.93758        1.67632       -1.19817
H         -4.39380        2.09570       -0.78212
N          5.18723       -0.24852       -0.03504
H          5.90510       -0.95489        0.09169
C          5.57540        1.02829        0.57937
H          6.51110        1.43266        0.17840
H          4.77625        1.75026        0.39976
H          5.68271        0.88932        1.65723
H          5.04031       -0.12380       -1.03408
