43
2msa1eda1tma_203.log	Energy: -1062671.6394932
S          2.50493        1.77050        0.20591
O          3.15471        0.64028        0.87982
O          1.29306        2.28998        0.82702
O          2.25310        1.42717       -1.30317
H          1.58979        0.62558       -1.38405
C          3.69667        3.07236        0.01805
H          3.95781        3.40818        1.02203
H          4.56844        2.66977       -0.49641
H          3.23667        3.87955       -0.55122
S         -0.74035       -0.56614       -1.03998
O         -1.50740       -1.47544       -1.88234
O          0.73243       -0.54140       -1.40681
O         -0.86382       -0.84423        0.42882
H          0.51732       -1.14109        1.16640
C         -1.33166        1.09346       -1.27268
H         -1.22915        1.33688       -2.33095
H         -2.38187        1.11158       -0.95635
H         -0.72729        1.75843       -0.65197
H          2.37296       -3.27592        2.12620
H          0.58639       -3.31739        2.18110
H          1.58795       -4.55538        0.20656
H          0.44936       -3.29294       -0.25753
H          3.06259       -3.46471       -1.10596
H          2.09799       -2.12932       -1.22212
H          1.51742       -1.06890        2.53053
H          2.20418       -1.10716        1.03766
C          1.45556       -2.96499        1.62081
C          1.43982       -3.47167        0.17714
N          1.42605       -1.48082        1.60461
N          2.49514       -2.81281       -0.58247
N         -4.21477        0.73865        0.35298
C         -5.44607        1.49722        0.24175
H         -5.23882        2.56551        0.35801
H         -5.89253        1.34002       -0.74480
H         -6.19224        1.20601        1.00714
C         -4.44693       -0.68208        0.14291
H         -4.86876       -0.84560       -0.85280
H         -3.49988       -1.22314        0.20288
H         -5.14537       -1.10342        0.89251
C         -3.55465        0.97777        1.62554
H         -2.60367        0.43850        1.64695
H         -3.34989        2.04690        1.74152
H         -4.17062        0.64981        2.48599
