30
2msa1eda_109.log	Energy: -953194.6237152
S         -1.55594       -1.53989       -0.10254
O         -1.26359       -0.65750        1.06752
O         -0.61005       -2.64792       -0.26453
O         -1.72510       -0.70326       -1.33951
C         -3.16172       -2.26151        0.19743
H         -3.09809       -2.85685        1.10869
H         -3.89296       -1.46034        0.31051
H         -3.41273       -2.89231       -0.65560
S          2.95586        0.21563        0.12177
O          2.13548        1.06463       -0.73071
O          3.64799        0.79545        1.25959
O          4.08213       -0.43852       -0.84497
H          4.94499       -0.31610       -0.42373
C          2.02043       -1.20620        0.60276
H          1.63748       -1.70816       -0.28664
H          2.67005       -1.85985        1.18423
H          1.17344       -0.86079        1.20175
H         -1.16898        3.62572       -0.39246
H         -1.80520        2.83572       -1.86388
H         -3.55997        3.19397       -0.07831
H         -3.36073        1.49394       -0.51989
H         -3.22188        2.41380        2.01663
H         -2.38325        1.07181        1.53223
H          0.31373        1.80320       -0.98408
H         -0.53311        1.39695        0.36922
C         -1.60878        2.71146       -0.79671
C         -2.87466        2.34369       -0.02185
N         -0.62670        1.61493       -0.63019
N         -2.52996        2.06635        1.36742
H         -0.99146        0.71094       -1.05579
