37
2msa1ma1eda_321.log	Energy: -1013356.8474695
S          2.51272       -0.22482       -0.38026
O          2.14716       -1.44380       -1.15140
O          2.76622       -0.44660        1.04639
O          1.49579        0.86228       -0.62773
C          4.02380        0.38016       -1.10602
H          3.84740        0.57380       -2.16397
H          4.30823        1.29342       -0.58330
H          4.78490       -0.38969       -0.97657
S         -1.44211        2.14177        0.06555
O         -2.45789        2.74391        0.90056
O         -1.80037        0.94158       -0.70447
O         -0.19188        1.83458        0.96976
H          0.55123        1.38976        0.41485
C         -0.80900        3.33633       -1.09295
H         -1.61053        3.57165       -1.79379
H         -0.50915        4.22295       -0.53443
H          0.04293        2.88672       -1.60585
N          0.01998       -0.92037        2.42227
H          0.99964       -0.81522        2.16203
C         -0.10471       -1.65863        3.67538
H          0.38555       -1.18189        4.53674
H         -1.16313       -1.79241        3.92108
H          0.33280       -2.65418        3.55232
H         -0.35344        0.01900        2.51463
H         -0.67865       -3.38544       -0.38556
H         -0.82314       -1.99013        0.72792
H         -3.05874       -3.11325        0.35342
H         -3.04403       -1.44495       -0.23201
H         -2.95385       -3.84530       -1.89981
H         -3.88480       -2.51029       -2.06060
H          0.47123       -1.54689       -1.33740
H         -0.99860       -1.78253       -2.19359
C         -1.12750       -2.39756       -0.24598
C         -2.63997       -2.44607       -0.41048
N         -0.57503       -1.50899       -1.30157
N         -2.96661       -2.83737       -1.78575
H         -0.85175       -0.53016       -1.10998
