29
2msa1a1ma_119.log	Energy: -929295.4070082
S          2.57831       -0.26511       -0.01303
O          2.41969        0.90190        0.83722
O          1.96975       -1.52979        0.37652
O          4.17460       -0.54021       -0.14873
H          4.62931        0.02354        0.49397
C          2.16553        0.09911       -1.69347
H          1.08178        0.26653       -1.69286
H          2.71577        0.99195       -1.98945
H          2.44344       -0.76115       -2.30264
S         -1.50754        1.26109        0.03778
O         -2.78560        1.62947       -0.57482
O         -0.71848        0.27158       -0.76433
O         -1.62830        0.78416        1.45467
H         -1.06637       -0.73673        1.58526
C         -0.50028        2.73398        0.12058
H         -0.37918        3.11902       -0.89290
H         -1.02377        3.46215        0.74087
H          0.46258        2.46964        0.56002
N         -0.74405       -1.73532        1.42662
H         -0.80864       -2.28986        2.27408
H          0.22609       -1.70252        1.08996
H         -1.36807       -2.11350        0.64578
N         -2.40620       -2.19054       -0.73762
H         -1.94258       -1.40674       -1.20254
C         -3.78100       -1.80561       -0.38645
H         -4.39509       -1.55143       -1.25769
H         -4.26171       -2.62356        0.15776
H         -3.74773       -0.92549        0.26015
H         -2.40522       -2.97838       -1.37697
