34
2msa1a1eda_337.log	Energy: -988687.8208896
S         -0.81748        1.71903        0.31260
O          0.23699        2.75097        0.30039
O         -0.89724        0.89209        1.50936
O         -0.68739        0.82728       -0.96965
H          0.24933        0.33715       -1.00334
C         -2.37060        2.51357        0.00234
H         -2.61654        3.07660        0.90326
H         -2.24236        3.18034       -0.85000
H         -3.12183        1.74835       -0.21518
S          2.34831       -1.10699       -0.18862
O          3.03589       -2.16628       -0.90699
O          1.55054       -0.19014       -1.09803
O          3.23604       -0.24082        0.66012
H          3.11442        1.20897        0.26481
C          1.18277       -1.83865        0.93982
H          0.52532       -2.51378        0.39061
H          1.75928       -2.40062        1.67524
H          0.61321       -1.04143        1.42178
N          2.92400        2.20565       -0.12842
H          1.93756        2.45853        0.08525
H          3.02600        2.15131       -1.13982
H          3.56527        2.89406        0.25504
H         -1.42609       -1.76082       -0.63844
H         -2.68724       -2.94514       -0.94437
H         -4.32931       -1.50812        0.28791
H         -3.02892       -0.41638        0.73720
H         -2.74749       -0.07615       -1.71981
H         -4.18748       -0.82417       -1.92909
H         -1.72118       -2.23312        1.73615
H         -2.76292       -3.44061        1.36933
C         -2.33657       -2.20409       -0.21606
C         -3.37688       -1.08866       -0.05763
N         -1.98168       -2.89943        1.01469
N         -3.62848       -0.30130       -1.26378
