29
2msa1a1ma_64.log	Energy: -929300.5015317
S         -2.33025       -0.84437        0.10819
O         -3.68852       -1.18619        0.52160
O         -1.59219        0.06849        1.02521
O         -2.24385       -0.31201       -1.30271
H         -1.53280        1.02500       -1.29494
C         -1.38837       -2.36532        0.07327
H         -1.42513       -2.80468        1.07124
H         -1.85108       -3.03641       -0.65111
H         -0.36357       -2.12608       -0.21356
S          2.06614        0.50736        0.46230
O          1.44979        1.77974        0.07880
O          3.52273        0.45747        0.54378
O          1.57144       -0.59300       -0.55736
H          2.38109       -1.12160       -0.94799
C          1.34956       -0.02156        1.99269
H          1.60839        0.73072        2.73901
H          0.26461       -0.08344        1.84598
H          1.78446       -0.98698        2.25197
N          3.69546       -1.80117       -1.46017
H          4.40326       -1.26783       -0.95851
H          3.85753       -1.68915       -2.45602
H          3.80978       -2.78335       -1.23094
N         -1.06713        2.00093       -1.19499
H         -0.15124        1.86157       -0.73633
C         -1.92768        2.87805       -0.36817
H         -1.44800        3.84752       -0.22920
H         -2.89220        2.99788       -0.86168
H         -2.06919        2.37649        0.58891
H         -0.90472        2.39124       -2.11992
