43
2msa1eda1tma_197.log	Energy: -1062672.9999902
S         -2.07122        0.42102       -1.37071
O         -1.39218       -0.78753       -1.93909
O         -1.12061        1.39261       -0.80073
O         -3.15016        0.03633       -0.41797
H         -2.53199       -0.55337        0.99516
C         -2.89351        1.19503       -2.74642
H         -2.13508        1.48043       -3.47544
H         -3.59189        0.47586       -3.17419
H         -3.41979        2.07243       -2.37040
S          1.29948       -2.03245       -0.14690
O          1.07150       -3.46523       -0.23270
O          0.58016       -1.33025        0.93802
O          1.01998       -1.31554       -1.50892
H          0.02088       -1.09451       -1.66742
C          3.02264       -1.67549        0.02993
H          3.34386       -2.13233        0.96679
H          3.54216       -2.12781       -0.81521
H          3.13269       -0.58170        0.04334
H         -0.06742        0.48940        2.65986
H         -0.97188        1.12306        4.03752
H         -1.51281       -1.20870        3.75231
H         -2.95452       -0.22080        3.37382
H         -1.07108       -1.31474        1.35151
H         -2.51979       -2.02215        1.77335
H         -1.35979        2.73100        2.48494
H         -1.51645        1.71606        1.21634
C         -1.07278        0.77368        3.00499
C         -1.94054       -0.47794        3.06082
N         -1.70373        1.81797        2.21397
N         -2.02924       -1.13106        1.72447
N          2.81979        1.60012       -0.06224
C          1.78533        1.89987        0.91468
H          0.87439        1.35623        0.65530
H          2.11637        1.58518        1.91051
H          1.54516        2.98000        0.95189
C          4.05333        2.30366        0.23636
H          4.40292        2.03671        1.23893
H          4.82697        2.02003       -0.48404
H          3.93187        3.40339        0.19521
C          2.35828        1.88779       -1.41266
H          3.10675        1.55340       -2.13795
H          1.42376        1.35564       -1.59996
H          2.17878        2.96826       -1.56881
