40
2msa1dma1eda_75.log	Energy: -1038033.9597849
S         -2.01018        1.25172       -0.78525
O         -3.44997        1.24733       -1.02696
O         -1.55501        0.11694        0.10199
O         -1.45054        2.52926       -0.25638
H         -0.14839        2.11033        0.67015
C         -1.18186        0.97929       -2.34644
H         -1.55713        0.05072       -2.78075
H         -1.42558        1.81688       -3.00096
H         -0.10438        0.92793       -2.16815
S          2.41752       -0.51242       -0.53800
O          1.86056       -0.58896        0.85156
O          2.12720        0.78980       -1.16634
O          2.01132       -1.69148       -1.35017
H          0.44598       -2.22428       -0.91507
C          4.18996       -0.64001       -0.37397
H          4.53868        0.19336        0.23663
H          4.42335       -1.59210        0.10260
H          4.62512       -0.59142       -1.37229
N          0.57558        1.82552        1.37974
C         -0.11161        1.65678        2.67391
C          1.67483        2.80915        1.38368
H          0.95721        0.90174        1.08607
H         -0.53264        2.61344        2.98699
H         -0.91491        0.93414        2.52953
H          0.60000        1.29484        3.41838
H          1.27181        3.79797        1.60848
H          2.41173        2.52426        2.13710
H          2.13344        2.80032        0.39481
H         -0.39682       -4.00061        0.65861
H          0.34628       -2.55399        1.39314
H         -1.97431       -3.35608        2.34390
H         -1.76577       -1.63161        2.01345
H         -3.76400       -3.12812        0.99147
H         -3.21007       -1.74651        0.30377
H         -1.19491       -2.69629       -1.08923
H         -0.82046       -1.25409       -0.35344
C         -0.51440       -2.92883        0.83595
C         -1.83696       -2.62021        1.54649
N         -0.50494       -2.25184       -0.48386
N         -2.94631       -2.68510        0.59405
