32
2msa1a1dma_01.log	Energy: -953982.2498244
S          2.56740       -0.41667       -0.08470
O          1.81192       -0.51578        1.18643
O          2.35012        0.88897       -0.76866
O          2.31901       -1.58701       -0.97314
C          4.30490       -0.46518        0.31327
H          4.52818        0.37398        0.97226
H          4.51324       -1.41250        0.81061
H          4.86699       -0.38639       -0.61740
S         -2.56832       -0.41634       -0.08182
O         -2.34861        0.88858       -0.76656
O         -1.82701       -0.51164        1.19711
O         -2.30586       -1.58707       -0.96660
C         -4.31028       -0.47113        0.29518
H         -4.54477        0.36845        0.94974
H         -4.86158       -0.39639       -0.64225
H         -4.52068       -1.41827        0.79200
N          0.00548       -2.54766        0.10274
H          0.87165       -2.33514       -0.44880
H         -0.86707       -2.32179       -0.43559
H          0.00030       -3.51028        0.42507
H          0.02083       -1.90357        0.90356
N          0.00043        2.09388       -0.09206
C          0.00297        3.38610       -0.80394
C         -0.00281        2.20810        1.38271
H         -0.85079        1.55604       -0.38345
H          0.89709        3.94782       -0.52868
H          0.00674        3.19447       -1.87688
H         -0.89293        3.94793       -0.53474
H          0.89493        2.74143        1.69952
H         -0.89904        2.74662        1.69502
H         -0.00708        1.20141        1.79815
H          0.85184        1.55489       -0.38057
