42
2msa2eda_469.log	Energy: -1072748.3618850
S         -2.06818        0.40820       -0.82668
O         -2.59190       -0.79931       -1.47572
O         -0.62387        0.67080       -1.15022
O         -2.28648        0.43920        0.65259
H         -1.29489       -0.51197        1.53937
C         -2.93499        1.82368       -1.46947
H         -2.80953        1.82438       -2.55238
H         -3.98697        1.72311       -1.20227
H         -2.49906        2.72421       -1.03358
S          2.39453       -0.93591       -0.61905
O          3.25090       -2.07291       -0.88245
O          1.83135       -0.78695        0.73434
O          1.24275       -0.95198       -1.68319
H          0.45352       -0.34836       -1.44317
C          3.26654        0.57220       -0.97775
H          3.52780        0.56542       -2.03588
H          2.62420        1.41631       -0.71554
H          4.16517        0.58393       -0.35951
H         -0.47156       -3.18264        2.60142
H         -2.03469       -2.40760        2.95963
H         -2.15873       -4.04055        1.01809
H         -2.65448       -2.39907        0.59351
H         -0.24832       -3.71612       -0.32809
H         -1.17118       -2.52207       -1.01841
H         -0.25682       -0.77103        2.85072
H          0.18073       -1.27278        1.33078
C         -1.24375       -2.51290        2.21326
C         -1.79525       -3.01446        0.87541
N         -0.61562       -1.18473        1.99325
N         -0.77912       -2.87344       -0.15153
H          0.02647        4.24157        1.60754
H         -1.24431        3.11806        1.14549
H          0.18818        1.98856        2.69687
H          0.36472        1.25627        1.08587
H          2.32263        3.05425        2.30728
H          2.51098        1.48571        1.86315
H          1.10194        3.84110       -0.45328
H          0.00932        2.70918       -0.88543
C         -0.17185        3.32092        1.04297
C          0.58236        2.14948        1.67640
N          0.12709        3.57378       -0.36051
N          2.02950        2.34999        1.63763
