43
2msa1eda1tma_29.log	Energy: -1062690.9659188
S         -2.82119        0.10730       -0.24204
O         -3.02418       -1.03443       -1.15009
O         -2.70147        1.43019       -0.87096
O         -1.64771       -0.14955        0.68891
C         -4.24730        0.17098        0.83310
H         -5.12088        0.37721        0.21394
H         -4.35263       -0.79304        1.33150
H         -4.09768        0.96706        1.56271
S          3.14629       -0.26071        0.01889
O          3.16374       -1.61250        0.60754
O          2.98380        0.84435        0.98725
O          2.13496       -0.15007       -1.09419
C          4.73587       -0.03272       -0.76524
H          4.86641       -0.81712       -1.51110
H          4.75404        0.95146       -1.23371
H          5.50258       -0.10492        0.00659
H          0.92922        3.26330       -1.31388
H         -0.66319        2.52402       -1.64512
H         -0.94495        4.74644       -0.57600
H         -1.58046        3.43655        0.42181
H          0.95432        4.84650        0.89654
H         -0.29096        4.61104        1.93357
H          1.02323        1.00621       -0.59548
H          0.97253        1.96924        0.74674
C          0.01939        2.85623       -0.86296
C         -0.65778        3.88042        0.03680
N          0.41491        1.67698       -0.06422
N          0.21804        4.20092        1.16080
H         -0.40531        1.14208        0.27494
N         -0.60546       -2.62502        0.25144
C          0.40024       -2.96096        1.29294
H          1.28725       -2.33459        1.16821
H         -0.05253       -2.80529        2.27325
H          0.68406       -4.00946        1.17546
C         -1.78989       -3.51463        0.32562
H         -2.20643       -3.45906        1.33275
H         -2.52654       -3.16464       -0.39747
H         -1.47791       -4.53893        0.10977
C         -0.01491       -2.61265       -1.11494
H         -0.79929       -2.31933       -1.81384
H          0.80467       -1.89009       -1.13983
H          0.35608       -3.61450       -1.34318
H         -0.95646       -1.64952        0.43644
