28
2msa1dma_61.log	Energy: -918451.6734734
S          0.73794       -1.23660       -0.05054
O          1.91420       -2.01640       -0.35592
O         -0.55674       -1.93196        0.03402
O          0.62806       -0.11294       -1.17639
H         -0.28332        0.27596       -1.20755
C          0.98385       -0.31000        1.44051
H          1.11182       -1.03896        2.24223
H          1.88929        0.28969        1.28307
H          0.09971        0.30679        1.61625
S         -2.74616        0.55325        0.05309
O         -1.89343        0.85820       -1.10473
O         -2.28454        1.01999        1.34858
O         -3.02914       -1.00557        0.08373
H         -2.14875       -1.47787        0.08111
C         -4.38488        1.13755       -0.27386
H         -4.72159        0.71089       -1.21789
H         -5.02528        0.83259        0.55341
H         -4.32088        2.22425       -0.33577
N          3.58255        0.97599       -0.05098
C          4.66831        0.02203        0.12748
C          4.03707        2.35678       -0.08601
H          3.08280        0.75921       -0.90782
H          5.12137        0.16891        1.11435
H          4.26706       -0.99294        0.07931
H          5.46678        0.12295       -0.62743
H          4.46488        2.62267        0.88674
H          4.80710        2.54736       -0.85357
H          3.18936        3.02153       -0.27334
