32
2msa2ma_02.log	Energy: -953981.9875379
S          2.57369        0.00130       -0.17416
O          2.39259        1.24677       -0.96710
O          2.39141       -1.24277       -0.96910
O          1.72695        0.00066        1.05080
C          4.27578        0.00002        0.35668
H          4.90486        0.00076       -0.53377
H          4.44971        0.89676        0.95141
H          4.44890       -0.89833        0.94924
S         -2.57372       -0.00106       -0.17418
O         -2.39220       -1.24657       -0.96700
O         -2.39200        1.24298       -0.96923
O         -1.72688       -0.00000        1.05072
C         -4.27575       -0.00055        0.35683
H         -4.44925        0.89750        0.94971
H         -4.90494       -0.00135       -0.53355
H         -4.44921       -0.89758        0.95127
N          0.00083       -2.14700        0.05603
H          0.00053       -1.41861        0.78207
H         -0.85927       -1.95758       -0.50290
C          0.00396       -3.49988        0.64144
H          0.00350       -4.23797       -0.16011
H          0.89815       -3.62289        1.25220
H         -0.88738       -3.62564        1.25579
H          0.85924       -1.95492       -0.50462
N         -0.00090        2.14692        0.05531
H         -0.00077        1.41784        0.78068
H          0.85918        1.95791       -0.50375
C         -0.00372        3.49921        0.64210
H         -0.00316        4.23812       -0.15868
H         -0.89785        3.62174        1.25305
H          0.88768        3.62410        1.25654
H         -0.85935        1.95556       -0.50547
