34
2msa1a1eda_134.log	Energy: -988703.7613997
S          2.44703       -0.43775       -0.24840
O          2.39658       -1.41035        0.85481
O          2.92995        0.90687        0.10990
O          1.10780       -0.32395       -0.96005
C          3.55713       -1.09304       -1.48071
H          4.54227       -1.18524       -1.02277
H          3.18504       -2.06903       -1.79293
H          3.58318       -0.39899       -2.32064
S         -2.07452       -1.14196       -0.09203
O         -2.84723       -0.33840       -1.03674
O         -1.66134       -0.46343        1.14006
O         -0.85112       -1.82003       -0.77946
H          0.01017       -1.21070       -0.82433
C         -3.02328       -2.58488        0.32683
H         -3.25875       -3.11674       -0.59469
H         -2.42991       -3.20489        0.99799
H         -3.93390       -2.23671        0.81491
N          0.71841        0.18516        2.80170
H         -0.17138       -0.30413        2.84771
H          1.02282        0.41200        3.74182
H          1.39423       -0.46295        2.38868
H         -1.69575        1.96703        1.10217
H         -0.83002        3.45765        1.53632
H         -2.30408        3.75685       -0.47269
H         -0.60487        4.06816       -0.84584
H         -1.99053        1.55229       -1.51527
H         -1.23797        2.61465       -2.53329
H          0.49904        1.32001        1.54246
H          0.28860        1.28358       -0.14290
C         -0.93947        2.68353        0.77313
C         -1.31840        3.27868       -0.58133
N          0.32210        1.92061        0.67265
N         -1.24554        2.24131       -1.59367
H          1.15395        2.49160        0.51995
