30
2msa1eda_163.log	Energy: -953179.5761260
S         -1.30026        1.67595       -0.04181
O         -0.25612        1.49159       -1.04824
O         -2.64853        1.25423       -0.38424
O         -1.35751        3.25368        0.32284
H         -1.97221        3.68992       -0.28586
C         -0.77555        1.03283        1.51196
H         -0.69909       -0.04902        1.33232
H          0.20351        1.45367        1.74288
H         -1.53215        1.28352        2.25469
S          2.67040       -0.32928        0.07995
O          2.49582       -1.68898        0.56147
O          2.37480        0.78388        0.97162
O          1.84179       -0.14839       -1.27145
H          1.06776        0.45725       -1.13790
C          4.32019       -0.16291       -0.55828
H          5.00241       -0.31983        0.27788
H          4.46917       -0.92545       -1.32257
H          4.43307        0.83870       -0.97157
H         -1.62543       -3.73632       -0.02355
H         -1.45757       -2.98294        1.57453
H         -3.78205       -2.93048        0.68452
H         -3.14646       -1.32387        1.06054
H         -4.28770       -1.91735       -1.25328
H         -3.09187       -0.81469       -1.15611
H          0.29346       -2.18841        0.19640
H         -0.74831       -1.73257       -0.97330
C         -1.65404       -2.77743        0.51562
C         -3.04981       -2.17793        0.37250
N         -0.64528       -1.83315        0.03344
N         -3.31124       -1.79603       -1.01581
