37
2msa1ma1eda_562.log	Energy: -1013345.6496132
S          2.14098        0.81013       -0.60139
O          3.55989        1.11664       -0.68790
O          1.18107        1.80451       -1.08925
O          1.81463        0.50843        0.91810
H          0.84839        0.76699        1.16958
C          1.82366       -0.74133       -1.40050
H          1.96463       -0.57588       -2.46992
H          2.55983       -1.45913       -1.02477
H          0.79745       -1.04240       -1.17715
S         -2.55638       -1.31442       -0.13465
O         -1.13350       -1.64925       -0.23926
O         -3.14124       -0.65980       -1.33340
O         -2.85237       -0.47127        1.09419
H         -3.12117        1.00918        0.52935
C         -3.44733       -2.83570        0.12162
H         -3.27842       -3.46665       -0.75135
H         -3.05181       -3.30977        1.01991
H         -4.50664       -2.60665        0.23542
N          4.69515       -1.73213       -0.03190
H          5.55816       -2.19724       -0.28953
C          4.42068       -1.88809        1.39466
H          5.21415       -1.51398        2.05937
H          3.49973       -1.35134        1.63740
H          4.25797       -2.94666        1.61971
H          4.78826       -0.74783       -0.26947
H         -1.67595        3.13673        1.65903
H         -0.09733        3.13840        0.85712
H         -1.58220        3.11443       -0.94587
H         -1.08291        1.42931       -0.80376
H         -3.67145        2.57808        0.06184
H         -3.35359        1.32927       -1.03213
H         -0.36315        1.50785        2.71905
H         -1.27017        0.57174        1.71431
C         -0.98560        2.53181        1.05070
C         -1.61777        2.23567       -0.30080
N         -0.55859        1.30783        1.74262
N         -3.04758        1.80944       -0.17293
