43
2msa1eda1tma_192.log	Energy: -1062675.4340115
S         -3.36203       -1.04836       -0.20343
O         -4.80783       -1.25455       -0.17230
O         -2.81365       -0.16581        0.85842
O         -2.86333       -0.57603       -1.55472
H         -1.93463        0.54723       -1.44223
C         -2.58323       -2.64103        0.02535
H         -2.90770       -3.03358        0.99018
H         -2.91256       -3.29859       -0.77992
H         -1.50016       -2.50397        0.00304
S          1.14325       -0.42344        0.84087
O          0.75912       -1.65564        0.14397
O          1.07741        0.78870       -0.04816
O          2.52301       -0.50502        1.44713
H          3.53923       -0.45247        0.35377
C          0.03523       -0.14854        2.19772
H         -0.98649       -0.17710        1.80235
H          0.19400       -0.95224        2.91744
H          0.26673        0.82159        2.63989
H         -1.68992        3.50869       -1.51713
H         -3.07275        2.45838       -1.12694
H         -2.46532        3.60807        0.88811
H         -2.00434        1.92622        1.07311
H          0.28902        2.56629        0.69945
H         -0.14813        4.14673        0.47750
H         -1.02032        1.55652       -2.44230
H         -0.41934        1.21716       -0.93421
C         -2.00840        2.63027       -0.94617
C         -1.75209        2.85059        0.54714
N         -1.28284        1.43473       -1.46755
N         -0.41028        3.27113        0.91611
N          4.22306       -0.34969       -0.48777
C          4.34758        1.10736       -0.72454
H          3.34144        1.51118       -0.84941
H          4.81164        1.56680        0.14877
H          4.95767        1.28559       -1.61369
C          5.50612       -0.97732       -0.10877
H          5.88564       -0.49276        0.79140
H          5.33307       -2.03400        0.09713
H          6.22729       -0.86940       -0.92301
C          3.58067       -1.03731       -1.63514
H          3.38904       -2.07527       -1.36285
H          2.62612       -0.55138       -1.83732
H          4.23849       -0.98130       -2.50624
