43
2msa1eda1tma_45.log	Energy: -1062688.7261932
S          1.28121        1.97478       -0.62274
O         -0.12012        2.43302       -0.68311
O          1.62019        0.90121       -1.58171
O          1.69344        1.60641        0.77617
H          1.67673       -0.03696        0.99025
C          2.29098        3.38506       -1.05259
H          2.03345        3.68264       -2.06942
H          2.07410        4.18877       -0.34872
H          3.33942        3.09223       -0.99215
S         -1.65550       -1.89743       -0.75660
O         -2.26664       -3.21579       -0.89608
O         -0.91612       -1.70801        0.54170
O         -2.60016       -0.75209       -0.95320
H         -2.47420        0.35255        0.18725
C         -0.43295       -1.71715       -2.04530
H          0.28104       -2.53781       -1.95326
H         -0.95286       -1.78639       -3.00137
H          0.06207       -0.74747       -1.94559
H          2.39045       -2.69939       -0.11492
H          2.41521       -1.10837       -0.93372
H          4.72431       -1.77836       -0.24121
H          4.17762       -0.31816        0.59200
H          4.33733       -2.99279        1.77600
H          4.93937       -1.58232        2.34474
H          0.65452       -1.38130        0.80821
H          1.94164       -1.42007        1.93005
C          2.59631       -1.63150        0.00677
C          4.01566       -1.39721        0.50562
N          1.64699       -1.09145        1.00690
N          4.16796       -1.99412        1.83405
N         -2.73074        1.00415        0.98933
C         -3.07488        2.31489        0.38721
H         -2.18015        2.70830       -0.09590
H         -3.86244        2.15948       -0.35127
H         -3.42264        2.99044        1.17317
C         -3.89999        0.35328        1.62412
H         -4.68201        0.23015        0.87497
H         -3.59541       -0.62998        1.98383
H         -4.25412        0.97219        2.45220
C         -1.58699        1.10585        1.92822
H         -1.32235        0.09616        2.24213
H         -0.74684        1.56790        1.41001
H         -1.88863        1.71364        2.78581
