30
2msa1eda_85.log	Energy: -953200.7382428
S         -2.38312       -0.19362       -0.03696
O         -2.76929        0.93621       -0.86991
O         -1.64621        0.12002        1.19295
O         -1.60181       -1.27405       -0.86480
H         -0.58377       -1.06560       -0.93037
C         -3.83204       -1.13557        0.37476
H         -4.48314       -0.47967        0.95327
H         -4.31674       -1.43859       -0.55304
H         -3.53036       -2.00144        0.96304
S          1.86333       -1.42278       -0.10181
O          2.65010       -2.42419       -0.80559
O          0.83506       -0.72761       -0.95838
O          2.68362       -0.38686        0.60873
H          2.40596        1.10003        0.55428
C          0.93226       -2.24474        1.18206
H          0.34862       -3.04099        0.71790
H          1.64620       -2.66242        1.89233
H          0.27591       -1.51479        1.65920
H          1.93724        3.77443       -0.73911
H          2.15359        2.18843       -1.53161
H         -0.30867        2.96828       -1.40358
H          0.04127        1.38308       -0.72153
H         -0.71374        3.75020        0.74305
H         -0.93290        2.15707        1.09371
H          3.21338        2.57451        0.79146
H          1.61053        2.42988        1.30583
C          1.71097        2.70610       -0.67940
C          0.20219        2.45257       -0.58510
N          2.30361        2.17560        0.57615
N         -0.26628        2.84178        0.74491
