38
2msa1ma1tma_113.log	Energy: -1003276.8352023
S         -1.50015       -1.08780        0.78475
O         -1.42264        0.27477        1.32235
O         -0.67509       -2.10763        1.41788
O         -1.23076       -1.05463       -0.76937
H         -0.22466       -0.92568       -0.99373
C         -3.19767       -1.59748        0.77822
H         -3.51711       -1.61477        1.82120
H         -3.78357       -0.88074        0.19081
H         -3.24543       -2.59730        0.34656
S          2.36325       -0.91892       -0.55234
O          3.61549       -0.62447       -1.24403
O          1.15620       -0.65659       -1.41849
O          2.19936       -0.20418        0.75433
H          1.43187        1.15666        0.60890
C          2.31237       -2.65110       -0.14644
H          2.36873       -3.21403       -1.07856
H          3.17143       -2.86972        0.48827
H          1.37803       -2.84315        0.38457
N         -4.62234        0.62162       -1.29403
H         -4.76588        0.14964       -2.18020
C         -3.46948        1.51950       -1.36798
H         -3.56473        2.32527       -2.11068
H         -3.30622        1.96986       -0.38451
H         -2.58114        0.92840       -1.60503
H         -5.47206        1.13541       -1.08810
N          1.17738        2.18694        0.48306
C          0.15139        2.29688       -0.58349
H          0.52092        1.78130       -1.47065
H         -0.75569        1.80768       -0.23080
H         -0.03137        3.35445       -0.79123
C          0.67906        2.68108        1.78771
H         -0.20722        2.10405        2.05174
H          1.45552        2.52718        2.53794
H          0.44374        3.74511        1.70346
C          2.45195        2.82921        0.08186
H          3.19059        2.66362        0.86609
H          2.80544        2.35929       -0.83693
H          2.28776        3.89845       -0.07128
