40
2msa1dma1eda_297.log	Energy: -1038020.8164924
S          3.61597       -0.01678        0.30047
O          2.69021       -1.00318        0.90587
O          3.57629        1.31618        0.92962
O          3.40459        0.09652       -1.19242
H          2.41593        1.25164       -1.44048
C          5.25638       -0.68153        0.49248
H          5.44198       -0.79933        1.56023
H          5.29683       -1.64537       -0.01462
H          5.96367        0.02112        0.05211
S         -2.98363        1.18432        0.16554
O         -3.35084       -0.08079       -0.51929
O         -2.41201        2.20006       -0.74472
O         -2.11224        0.93715        1.35861
H         -0.74802       -0.12003        1.10171
C         -4.50003        1.86366        0.81836
H         -5.17620        2.04423       -0.01758
H         -4.92808        1.13966        1.51193
H         -4.26371        2.79605        1.33134
N         -1.90879       -2.60361       -0.21864
C         -2.34609       -3.50199        0.84474
C         -1.72122       -3.28089       -1.49699
H         -2.59431       -1.84949       -0.33213
H         -1.56689       -4.24467        1.04642
H         -2.51934       -2.92721        1.75822
H         -3.27298       -4.03766        0.59125
H         -0.90074       -4.00204       -1.41917
H         -2.62194       -3.82003       -1.82624
H         -1.46347       -2.54569       -2.26374
H          0.94870       -0.46854       -1.27541
H         -0.75323        0.08236       -1.31553
H         -0.24477        2.16759       -0.36275
H          1.13635        1.51836        0.57211
H          1.17534        2.09628       -2.31332
H          2.00285        2.86254       -1.10140
H         -0.64866       -1.57459        0.27017
H          0.80863       -0.88816        0.97122
C          0.16889        0.06775       -0.72916
C          0.61276        1.49228       -0.38510
N         -0.09478       -0.68588        0.51448
N          1.60392        1.97220       -1.39696
