35
2msa1ma1dma_297.log	Energy: -978612.7804678
S          2.64931       -1.01979       -0.34901
O          3.60949       -2.03870       -0.73088
O          2.48382        0.15361       -1.21887
O          2.95017       -0.52160        1.10353
H          2.81874        0.56538        1.17486
C          1.05227       -1.78648       -0.17134
H          0.75192       -2.15112       -1.15483
H          1.15715       -2.61171        0.53444
H          0.35024       -1.03080        0.18879
S         -1.63498        1.02382       -0.67602
O         -1.01175        0.71487        0.63866
O         -2.77242        1.94591       -0.60358
O         -1.98990       -0.27564       -1.37817
H         -2.73760       -1.11578       -0.46067
C         -0.38162        1.75756       -1.70469
H         -0.12821        2.72210       -1.26123
H          0.49036        1.10031       -1.73321
H         -0.80455        1.90152       -2.69906
N          2.62896        1.98476        1.12453
H          3.48234        2.48353        1.35877
C          1.48189        2.47787        1.90505
H          1.31593        3.55170        1.76890
H          0.58605        1.93433        1.59551
H          1.66330        2.28046        2.96374
H          2.47422        2.10136        0.12394
N         -3.27958       -1.66959        0.33335
C         -4.22209       -0.71742        0.97036
C         -2.27349       -2.22092        1.27017
H         -3.79819       -2.42474       -0.11151
H         -3.64027        0.10626        1.38550
H         -4.89030       -0.31980        0.20696
H         -4.78689       -1.22355        1.75584
H         -1.66689       -1.38484        1.62316
H         -2.76987       -2.72274        2.10328
H         -1.63940       -2.92406        0.72924
