38
2msa1ma1tma_89.log	Energy: -1003277.7782486
S          3.39717        0.07329        0.08224
O          2.92417       -1.33130        0.29707
O          3.25702        0.93152        1.27279
O          2.76241        0.68575       -1.12232
H          1.48423        1.58587       -0.48320
C          5.13286       -0.09314       -0.27521
H          5.23954       -0.70664       -1.16961
H          5.54243        0.90409       -0.43642
H          5.60636       -0.57135        0.58227
S         -0.54596       -1.15011       -0.07845
O         -0.72638       -0.38306       -1.30848
O         -0.38760       -0.32562        1.13742
O          0.62732       -2.16587       -0.19271
H          1.57652       -1.76124        0.00011
C         -1.91341       -2.24830        0.14846
H         -2.81403       -1.62128        0.19279
H         -1.94399       -2.92427       -0.70635
H         -1.75695       -2.79642        1.07721
N          0.82186        2.01099        0.21734
H          0.39506        1.20047        0.71101
C         -0.21582        2.85545       -0.40585
H         -0.87466        3.25818        0.36399
H          0.25679        3.66933       -0.95536
H         -0.78669        2.22592       -1.08866
H          1.42175        2.49291        0.88771
N         -4.25034        0.13066        0.09407
C         -4.03278        0.59602       -1.26704
H         -2.95985        0.67061       -1.46351
H         -4.45316       -0.12361       -1.97576
H         -4.50437        1.58017       -1.45272
C         -5.66308       -0.07598        0.36304
H         -6.07377       -0.79719       -0.34963
H         -5.79557       -0.47845        1.37170
H         -6.24830        0.86007        0.28377
C         -3.65810        1.04143        1.05952
H         -3.79730        0.65183        2.07208
H         -2.58228        1.12130        0.88022
H         -4.10541        2.05320        1.01027
