43
2msa1eda1tma_14.log	Energy: -1062692.8186782
S          2.57672        0.39295        0.39188
O          2.62749       -0.82541        1.22376
O          2.65353        1.67005        1.11625
O          1.37736        0.35600       -0.53343
C          3.99274        0.31884       -0.69520
H          4.89026        0.34056       -0.07621
H          3.94245       -0.60970       -1.26539
H          3.96696        1.18094       -1.36224
S         -3.01198       -0.38291        0.21312
O         -2.08030       -0.36671       -0.94714
O         -3.28266        0.96251        0.75334
O         -2.56182       -1.36547        1.24723
C         -4.57321       -1.01151       -0.38697
H         -4.94341       -0.32676       -1.15052
H         -4.41040       -2.00441       -0.80674
H         -5.26634       -1.05773        0.45332
H         -0.39643       -3.88812       -0.02270
H         -0.77864       -2.65857       -1.26314
H          1.25526       -3.98760       -1.84453
H          1.62427       -2.27074       -1.65339
H          3.02340       -4.15291       -0.43111
H          2.70283       -2.75233        0.37485
H         -0.97889       -1.74981        0.92282
H          0.66839       -2.09764        1.23969
C         -0.05237       -2.97430       -0.51126
C          1.33353       -3.18178       -1.10864
N         -0.02184       -1.90146        0.51111
N          2.28297       -3.56632       -0.06949
H          0.27135       -1.01223        0.06951
N         -0.10153        2.63884       -0.39631
C          0.94071        3.65989       -0.66425
H          1.73985        3.53174        0.06630
H          1.33263        3.50632       -1.67086
H          0.49049        4.65198       -0.58688
C         -1.20665        2.69758       -1.38737
H         -0.77753        2.61776       -2.38712
H         -1.88032        1.86015       -1.20638
H         -1.72740        3.65080       -1.27349
C         -0.59983        2.73138        1.00437
H         -1.40476        2.00589        1.13977
H          0.23980        2.53096        1.67129
H         -0.98834        3.73940        1.16775
H          0.37321        1.70564       -0.48585
