40
2msa1dma1eda_225.log	Energy: -1038020.2234206
S          1.19860       -1.87096       -0.05619
O          1.07193       -1.78970       -1.51233
O         -0.12792       -1.66331        0.65375
O          2.21468       -0.97284        0.54221
H          1.29667        0.55680        1.04652
C          1.68096       -3.53513        0.36420
H          0.92339       -4.21749       -0.02174
H          2.64618       -3.72812       -0.10481
H          1.75764       -3.60968        1.44885
S         -2.65863        0.20631       -0.59623
O         -1.46101        1.02281       -0.85546
O         -3.46871        0.59093        0.54952
O         -2.27267       -1.30465       -0.54349
H         -1.34859       -1.47542       -0.07976
C         -3.66358        0.21835       -2.06008
H         -4.03400        1.23562       -2.18906
H         -3.04390       -0.08563       -2.90305
H         -4.48958       -0.47626       -1.90825
N          2.50996        2.31516       -1.20409
C          1.80633        1.65366       -2.30961
C          3.79996        1.68295       -0.91340
H          2.65660        3.29237       -1.43675
H          1.61769        0.60762       -2.04780
H          0.84201        2.14084       -2.47499
H          2.38398        1.67113       -3.24513
H          3.61952        0.65938       -0.57181
H          4.46072        1.64912       -1.79217
H          4.30562        2.23124       -0.11372
H         -1.57534        1.20822        2.21936
H         -0.92300        1.94063        3.68483
H         -0.12897        3.10589        1.64183
H          1.21681        2.41566        2.59052
H         -0.02284        1.15430        0.21917
H          1.44447        1.95714        0.15906
H         -0.48378       -0.25673        4.06554
H         -0.10758       -0.61503        2.51504
C         -0.65395        1.35048        2.80314
C          0.33482        2.17947        1.99068
N         -0.03213        0.10323        3.23403
N          0.78919        1.42563        0.80064
