40
2msa1dma1eda_187.log	Energy: -1038022.7396207
S         -0.97428       -2.00361        0.19483
O         -2.29180       -1.37781       -0.02428
O         -0.37873       -1.80472        1.51794
O         -0.02814       -1.57164       -0.92138
C         -1.18281       -3.75796       -0.05003
H         -1.87995       -4.11656        0.70781
H         -1.58279       -3.92180       -1.05056
H         -0.21062       -4.23743        0.06624
S          2.74977        0.26605       -0.22762
O          2.40899        0.54831        1.16000
O          2.20145        1.19218       -1.23080
O          2.41610       -1.20999       -0.61731
H          1.38534       -1.39059       -0.68808
C          4.51508        0.22633       -0.40737
H          4.88103        1.22304       -0.15946
H          4.91003       -0.51465        0.28708
H          4.75193       -0.02955       -1.43943
N         -0.56627        1.35353        1.58858
C         -1.75126        1.11600        2.41207
C          0.02883        2.66748        1.82046
H          0.12736        0.63101        1.78171
H         -2.54186        1.80670        2.10561
H         -2.09382        0.09255        2.25251
H         -1.54334        1.25960        3.48251
H         -0.67587        3.44262        1.49955
H          0.26820        2.83988        2.87952
H          0.95127        2.75524        1.24169
H         -1.62226        3.01318       -1.45828
H         -1.29446        2.06477       -2.93067
H         -3.68951        2.07142       -2.38936
H         -3.03048        0.43337       -2.30507
H         -4.50034        1.35848       -0.38850
H         -3.17298        0.48947       -0.00421
H          0.31797        1.45772       -1.30545
H         -0.77857        1.25451       -0.03973
C         -1.62932        2.00978       -1.89071
C         -3.03011        1.41734       -1.81010
N         -0.66038        1.19190       -1.12870
N         -3.48810        1.36112       -0.42893
H         -0.70627        0.18772       -1.35662
