30
2msa1eda_01.log	Energy: -953216.1300774
S         -2.90368       -0.34764        0.02372
O         -3.35791        0.60940        1.04415
O         -1.68031       -1.10293        0.44202
O         -2.67882        0.28256       -1.31716
H         -1.06887        0.49598       -1.52093
C         -4.18189       -1.56443       -0.20757
H         -5.07915       -1.04798       -0.54889
H         -3.84057       -2.28412       -0.95127
H         -4.35818       -2.05131        0.75160
S          2.90350       -0.34785       -0.02310
O          2.67844        0.28518        1.31649
O          3.35586        0.60764       -1.04580
O          1.68107       -1.10567       -0.43935
H         -0.50177       -0.14671        1.13247
C          4.18352       -1.56233        0.21023
H          5.07999       -1.04390        0.55064
H          3.84336       -2.28132        0.95511
H          4.36055       -2.05042       -0.74819
H          1.40461        1.94708       -0.64780
H         -0.06304        2.76699       -1.22087
H          0.06291        2.77093        1.21391
H         -1.40481        1.94911        0.64362
H          1.06906        0.50022        1.51976
H         -0.30639        0.82143        2.46047
H          0.30824        0.81337       -2.46082
H          0.50071       -0.15081       -1.12970
C          0.31451        1.88661       -0.69685
C         -0.31469        1.88890        0.69274
N         -0.02543        0.68455       -1.50701
N          0.02558        0.68938        1.50656
