37
2msa1ma1eda_67.log	Energy: -1013370.8778470
S         -1.96053       -1.33151       -0.37661
O         -3.35158       -0.87006       -0.30634
O         -1.72453       -2.78185       -0.34644
O         -1.11487       -0.66326        0.71417
H          0.19432       -1.59656        1.02423
C         -1.25955       -0.70825       -1.89793
H         -1.77675       -1.19525       -2.72569
H         -1.41677        0.37179       -1.91978
H         -0.19240       -0.93917       -1.91504
S          2.49492        0.59217       -0.36493
O          2.34525       -0.75476       -0.98046
O          2.22022        0.55036        1.10686
O          1.72463        1.65360       -1.04817
H          0.09247        2.20465       -0.02458
C          4.21653        1.02408       -0.54670
H          4.81876        0.26287       -0.05056
H          4.44158        1.05917       -1.61281
H          4.37345        2.00057       -0.08825
N          1.11639       -2.11091        1.06948
H          1.58932       -1.86828        0.17422
C          0.93303       -3.56040        1.28597
H          1.89471       -4.06870        1.21132
H          0.49831       -3.72313        2.27215
H          0.23740       -3.92301        0.52985
H          1.67978       -1.64360        1.78077
H         -1.84808        3.99075       -0.11607
H         -3.18941        3.59815        0.96339
H         -0.90861        3.47621        2.03736
H         -1.86614        1.99017        2.19452
H          0.54077        1.67198        1.44589
H         -0.65641        0.86951        0.64643
H         -3.15508        1.33508       -0.12709
H         -3.20163        2.48653       -1.29673
C         -2.32713        3.16919        0.42959
C         -1.35454        2.64606        1.48510
N         -2.65116        2.12650       -0.52707
N         -0.28560        1.83774        0.85873
