29
2msa1a1ma_134.log	Energy: -929294.6266500
S         -1.48617       -1.16268       -0.38900
O         -2.51727       -2.12219       -0.74633
O         -0.10259       -1.78398       -0.28502
O         -1.74314       -0.42494        0.89948
H         -0.63454       -0.72474        1.91701
C         -1.38067        0.08301       -1.65349
H         -1.22959       -0.42399       -2.60709
H         -2.32250        0.63931       -1.63430
H         -0.54737        0.74848       -1.42021
S          2.35346        0.44123       -0.10586
O          2.47977       -0.03434        1.28655
O          1.45127        1.56375       -0.31700
O          2.00259       -0.75519       -1.04216
H          1.07784       -1.20123       -0.76520
C          3.97646        0.84458       -0.69466
H          4.32665        1.69108       -0.10352
H          4.62086       -0.02289       -0.55747
H          3.89478        1.11469       -1.74717
N          0.20939       -1.04906        2.51140
H          0.09493       -0.81634        3.49372
H          1.07461       -0.61592        2.12421
H          0.28160       -2.05766        2.39021
N         -3.51674        1.91960        0.01207
H         -4.44940        2.29102        0.15086
C         -2.49811        2.87643        0.43374
H         -2.57954        3.20336        1.48209
H         -1.51033        2.42587        0.30228
H         -2.54289        3.76574       -0.20250
H         -3.43160        1.06355        0.55284
