32
2msa2ma_124.log	Energy: -953960.9644271
S          1.52781        1.00286       -0.26028
O          1.25276        2.36731       -0.80105
O          1.42805       -0.07010       -1.26255
O          0.64838        0.75470        0.93740
H         -0.43178       -0.29893        1.04055
C          3.19448        1.02498        0.35479
H          3.84629        1.30081       -0.47496
H          3.25305        1.76263        1.15482
H          3.42651        0.01510        0.70506
S         -2.12073       -1.10821       -0.08064
O         -3.29691       -1.85111        0.31292
O         -1.19565       -0.96427        1.18392
O         -2.31664        0.22294       -0.68420
H         -1.72986        1.79440       -0.46002
C         -1.14050       -2.06343       -1.21145
H         -0.95117       -3.03045       -0.74518
H         -1.72406       -2.18111       -2.12525
H         -0.21208       -1.51755       -1.40051
N          3.05324       -2.30395        0.08074
H          2.67117       -1.81812       -0.72662
C          1.97551       -2.90088        0.86396
H          1.39424       -3.67163        0.33358
H          2.38715       -3.35517        1.76981
H          1.28236       -2.11635        1.17819
H          3.69666       -3.01299       -0.25206
N         -1.35057        2.75408       -0.30994
H         -0.32584        2.70784       -0.57810
C         -1.49321        3.14101        1.11379
H         -1.11404        4.15329        1.25246
H         -2.54201        3.08355        1.40427
H         -0.89761        2.44095        1.69886
H         -1.83860        3.39271       -0.93376
