34
2msa1a1eda_153.log	Energy: -988704.6816737
S          2.53742       -0.14822       -0.23026
O          1.81049        0.62639       -1.25841
O          2.24166       -1.61204       -0.27577
O          2.36529        0.39541        1.14730
H          1.31491       -0.86091        2.23641
C          4.27270        0.00466       -0.62167
H          4.42903       -0.40107       -1.62138
H          4.53610        1.06216       -0.58915
H          4.84462       -0.55822        0.11608
S         -2.15420       -1.27509       -0.22221
O         -2.79297       -2.56404        0.01913
O         -1.43898       -0.71240        0.97857
O         -3.06805       -0.21804       -0.77027
H         -2.66043        1.23347       -0.52646
C         -0.89862       -1.50031       -1.47108
H         -0.18380       -2.24977       -1.12978
H         -1.39707       -1.83420       -2.38170
H         -0.37051       -0.55762       -1.62812
N          0.78233       -1.70974        1.99418
H          0.73570       -2.38139        2.75306
H          1.30704       -2.06022        1.16362
H         -0.18052       -1.40685        1.65711
H         -2.04268        3.58945        1.21898
H         -2.26664        1.87575        1.68779
H          0.19703        2.67304        1.67575
H         -0.15716        1.23134        0.73046
H          0.52639        3.83212       -0.32473
H          0.84019        2.30987       -0.88657
H         -3.32117        2.79241       -0.52024
H         -1.72972        2.60064       -1.05287
C         -1.83202        2.55059        0.94925
C         -0.32634        2.30751        0.78609
N         -2.45355        2.28331       -0.37569
N          0.13028        2.91018       -0.46402
