26
2msa2a_02.log	Energy: -904657.9819621
S         -2.65023       -0.00672        0.05862
O         -2.59735       -1.06786        1.07970
O         -1.64208       -0.23343       -1.02944
O         -2.52588        1.37782        0.59929
H         -0.98149        1.90985        0.33865
C         -4.25458       -0.08294       -0.71237
H         -5.00511        0.09503        0.05808
H         -4.30260        0.68570       -1.48349
H         -4.37679       -1.07510       -1.14703
S          2.63677       -0.03669       -0.15141
O          2.43601        1.09835       -1.07031
O          2.58114       -1.37893       -0.75945
O          1.67355        0.05890        1.02147
H          0.52580       -1.31425        0.80121
C          4.26045        0.14268        0.56359
H          4.98849        0.06939       -0.24477
H          4.32117        1.11785        1.04667
H          4.40824       -0.65809        1.28814
N          0.01511       -1.99078        0.19845
H          0.73775       -2.49350       -0.31957
H         -0.57906       -1.40915       -0.44581
H         -0.60756       -2.58210        0.74407
N          0.04533        2.09926        0.18052
H          0.62480        1.40494        0.70818
H          0.29981        3.04564        0.44753
H          0.30061        1.94160       -0.79725
