41
2msa1dma1tma_136.log	Energy: -1027937.7771948
S          2.95992       -0.75101       -0.41310
O          2.92414        0.78811       -0.68633
O          2.49400       -1.50968       -1.56917
O          2.32044       -1.06894        0.86601
C          4.71598       -0.96138       -0.24011
H          5.19217       -0.65294       -1.17029
H          5.05576       -0.35430        0.59837
H          4.89088       -2.02062       -0.04986
S         -0.22755        2.06897        0.20630
O          0.19674        1.28365        1.39397
O         -1.65539        1.92690       -0.12109
O          0.65198        1.77717       -0.97643
H          1.95966        1.17819       -0.78650
C          0.06281        3.78140        0.60794
H          1.12170        3.90449        0.83604
H         -0.21871        4.38163       -0.25754
H         -0.55154        4.03737        1.47144
N         -4.16169       -1.33054       -0.95260
C         -3.65939       -0.37084       -1.93144
C         -5.13897       -0.73511       -0.05272
H         -4.58928       -2.11286       -1.43683
H         -3.11947        0.43118       -1.41679
H         -2.95902       -0.86728       -2.60938
H         -4.45770        0.09194       -2.53573
H         -4.65915        0.06563        0.52027
H         -6.00616       -0.29185       -0.57096
H         -5.50464       -1.48718        0.65309
N         -0.69277       -1.29739        1.06749
C         -0.18939       -2.50491        1.76243
H          0.79304       -2.74665        1.36143
H         -0.10460       -2.28917        2.82802
H         -0.89681       -3.32088        1.59946
C         -2.00745       -0.85505        1.60451
H         -1.90338       -0.68983        2.67721
H         -2.27518        0.07923        1.11032
H         -2.75091       -1.62267        1.38584
C         -0.75652       -1.49966       -0.40717
H         -1.00194       -0.54505       -0.87155
H          0.21550       -1.84254       -0.76146
H         -1.54751       -2.22017       -0.62147
H         -0.03714       -0.50201        1.23511
