35
2msa1ma1dma_225.log	Energy: -978618.8612417
S         -0.83941        1.61420       -0.50615
O         -0.11803        2.91499       -0.60862
O         -0.70025        1.00413        0.83732
O         -0.45259        0.67632       -1.59754
H          0.38029       -0.61819       -1.43734
C         -2.56363        1.97181       -0.75929
H         -2.68018        2.40697       -1.75162
H         -3.11292        1.03207       -0.68236
H         -2.88244        2.67139        0.01332
S          1.85210       -1.67592       -0.20182
O          2.62514       -2.87509       -0.42830
O          0.85971       -1.51328       -1.41128
O          2.59167       -0.41313       -0.00906
H          2.39495        1.25578        0.08697
C          0.78771       -1.88348        1.20390
H          0.09590       -2.70163        1.00319
H          1.42786       -2.11450        2.05650
H          0.24175       -0.95030        1.35217
N          2.30757        2.26226        0.34808
H          3.12860        2.75774        0.00823
C          2.14755        2.37066        1.81904
H          2.07497        3.42168        2.09742
H          1.22164        1.85613        2.07760
H          2.99804        1.90058        2.31187
H          1.43923        2.63373       -0.12541
N         -2.56863       -1.53846        0.83271
C         -3.87313       -1.30051        1.42025
C         -2.64415       -2.00836       -0.53907
H         -2.00581       -0.69441        0.88681
H         -4.40907       -2.25027        1.52840
H         -3.75642       -0.86457        2.41606
H         -4.51431       -0.62691        0.81940
H         -3.11604       -2.99707       -0.56256
H         -3.23200       -1.34756       -1.20397
H         -1.64094       -2.10186       -0.96169
