32
2msa2ma_59.log	Energy: -953964.5097552
S          2.37139        0.79495       -0.19694
O          1.65034        1.84184        0.54633
O          1.89843        0.53422       -1.55176
O          2.43421       -0.51791        0.63919
H          1.46006       -0.92676        0.80266
C          4.09182        1.22891       -0.23005
H          4.17402        2.16034       -0.79072
H          4.43465        1.36073        0.79564
H          4.63533        0.42668       -0.72839
S         -0.76753       -2.02320        0.05680
O         -1.42904       -3.20549        0.58787
O          0.17625       -1.37600        1.05502
O         -1.68233       -0.97096       -0.47901
H         -1.28633        0.49308        0.20436
C          0.26205       -2.51901       -1.31393
H          0.97555       -3.25999       -0.95142
H         -0.39123       -2.95812       -2.06848
H          0.77376       -1.63845       -1.70711
N         -3.20854        2.56372       -0.93820
H         -3.66848        3.46335       -0.84305
C         -4.17331        1.46383       -0.77071
H         -4.97938        1.47117       -1.51364
H         -3.64609        0.50801       -0.83596
H         -4.62254        1.53364        0.22338
H         -2.81343        2.53883       -1.87401
N         -1.16241        1.42065        0.68238
H         -0.17930        1.70859        0.55882
C         -1.48341        1.27255        2.11667
H         -1.34320        2.22626        2.62604
H         -2.51825        0.94361        2.21583
H         -0.82418        0.51420        2.53825
H         -1.81195        2.07294        0.18795
