42
2msa2eda_535.log	Energy: -1072744.4626604
S         -1.11413       -1.69189        0.91021
O         -2.21224       -0.94584        1.56330
O          0.03052       -1.99955        1.78941
O         -0.65757       -1.00166       -0.34671
C         -1.80811       -3.24319        0.36092
H         -2.16717       -3.78103        1.23877
H         -2.63143       -3.02239       -0.31979
H         -1.02721       -3.81228       -0.14447
S          2.87793       -0.08672       -0.90438
O          1.75953        0.72998       -1.35485
O          3.75362        0.41646        0.13801
O          3.79544       -0.36920       -2.21690
H          3.40524        0.11275       -2.95996
C          2.37066       -1.73150       -0.49313
H          1.79567       -1.68830        0.43786
H          1.73162       -2.09958       -1.29461
H          3.27572       -2.32825       -0.37702
H         -0.59979        2.58994        2.34489
H         -0.81062        0.82051        2.37715
H          1.40682        1.50179        3.35375
H          1.60085        0.50698        1.92215
H          2.21870        3.32396        2.16299
H          2.88808        2.17148        1.19412
H         -1.41864        1.86550        0.25854
H          0.27328        2.28479        0.08000
C         -0.21835        1.63824        1.96225
C          1.26676        1.49056        2.26609
N         -0.41177        1.64320        0.49142
N          2.01567        2.53245        1.56527
H         -0.25987        0.69300        0.09033
H         -4.86323        1.28262       -1.13314
H         -4.03353        2.84987       -1.26013
H         -3.59034        1.48227       -3.20806
H         -2.09341        1.77357       -2.31553
H         -2.68871       -0.59898       -3.11489
H         -2.14073       -0.47557       -1.58309
H         -3.71503        2.01204        0.91263
H         -3.13739        0.58419        0.40572
C         -3.88089        1.77373       -1.11915
C         -3.05735        1.23587       -2.28326
N         -3.18743        1.57790        0.16124
N         -2.90656       -0.21281       -2.20392
