43
2msa1eda1tma_111.log	Energy: -1062681.1071866
S          1.98315       -1.61747       -0.51724
O          1.76094       -2.65396        0.49676
O          2.74966       -0.43130       -0.00590
O          0.72549       -1.16304       -1.18210
C          3.01614       -2.31432       -1.79099
H          2.49917       -3.17835       -2.20877
H          3.18635       -1.55629       -2.55558
H          3.95678       -2.61530       -1.32965
S          0.66982        2.44522       -0.25283
O          0.77160        3.86174        0.03294
O         -0.66195        1.83340       -0.22199
O          1.62138        1.69053        0.76130
H          2.02966        0.80956        0.41607
C          1.38783        2.08118       -1.84047
H          0.81803        2.65050       -2.57588
H          2.43068        2.39803       -1.82979
H          1.28889        1.00724       -2.01291
H         -1.73856       -1.56924        2.70128
H         -0.51847       -2.51153        1.79023
H          0.46368       -1.37482        3.82539
H          1.21891       -0.88683        2.31749
H         -0.34243        0.77135        4.07233
H          0.67360        1.21545        2.84687
H         -2.06388       -0.82037        0.47651
H         -1.03025        0.30072        1.16758
C         -0.82214       -1.51242        2.10714
C          0.29323       -0.82044        2.89600
N         -1.11008       -0.69437        0.90860
N         -0.06390        0.57712        3.12030
H         -0.42400       -0.85947        0.14368
N         -3.44537       -0.57121       -0.62703
C         -2.72946       -0.44008       -1.89693
H         -1.95621        0.32660       -1.79823
H         -2.24195       -1.38677       -2.14525
H         -3.40870       -0.16112       -2.71945
C         -4.45463       -1.62040       -0.69208
H         -3.98070       -2.57255       -0.94646
H         -4.94331       -1.72581        0.28076
H         -5.22848       -1.40365       -1.44823
C         -4.02656        0.70866       -0.22579
H         -4.51044        0.60322        0.74969
H         -3.23582        1.45987       -0.14771
H         -4.77803        1.06262       -0.95134
