43
2msa1eda1tma_267.log	Energy: -1062666.3821498
S         -1.32740        0.07798        1.28867
O         -0.58532        0.93919        0.34522
O         -1.59199       -1.28698        0.73418
O         -2.62720        0.68527        1.72720
H         -3.72407        0.09762        0.70053
C         -0.33369       -0.12018        2.74603
H          0.58574       -0.62373        2.44034
H         -0.13422        0.87094        3.15408
H         -0.89638       -0.72826        3.45428
S          1.64397       -2.14272       -0.46799
O          2.52847       -3.13882       -1.03631
O          1.79710       -1.74669        0.92875
O          0.15512       -2.67419       -0.68703
H         -0.48119       -2.16233       -0.11140
C          1.67875       -0.67440       -1.46810
H          2.63941       -0.17486       -1.31261
H          1.53814       -0.96997       -2.50789
H          0.88038       -0.01852       -1.11514
H         -5.23307        0.56546       -1.84417
H         -5.27632        1.58578       -0.38025
H         -3.66240        2.43687       -2.17886
H         -2.89785        2.12762       -0.61442
H         -2.37737        0.73282       -3.05033
H         -1.55273        0.71415       -1.60874
H         -4.97216       -0.87492        0.04248
H         -3.48525       -0.71851       -0.72365
C         -4.65070        0.93854       -0.99790
C         -3.37675        1.64935       -1.47391
N         -4.22102       -0.22880       -0.18545
N         -2.46877        0.66309       -2.04613
N          3.32739        1.87897       -0.24512
C          2.33126        2.81964       -0.72604
H          2.52066        3.05615       -1.77843
H          1.33494        2.37743       -0.63583
H          2.33549        3.76785       -0.15308
C          3.02197        1.44254        1.10736
H          2.02779        0.98949        1.12801
H          3.74254        0.68450        1.42580
H          3.04488        2.27902        1.83332
C          4.66639        2.42756       -0.34271
H          5.39752        1.68260       -0.01552
H          4.88602        2.68796       -1.38291
H          4.79842        3.33711        0.27603
