30
2msa1eda_175.log	Energy: -953178.7040886
S         -2.45186        0.23058       -0.03243
O         -2.11651        1.44439        0.67331
O         -1.64608       -0.19772       -1.17982
O         -3.95881        0.37931       -0.60973
H         -3.92852        0.26550       -1.57096
C         -2.66025       -1.10252        1.11416
H         -1.67421       -1.28106        1.54941
H         -3.38567       -0.78495        1.86297
H         -3.00690       -1.97713        0.56437
S          1.24960       -1.83640        0.08012
O          1.09005       -3.26772       -0.09791
O          0.46397       -1.17567        1.12227
O          0.95433       -1.08511       -1.30871
H          0.03229       -0.73971       -1.30051
C          2.96091       -1.42920        0.26878
H          3.29926       -1.94659        1.16788
H          3.49067       -1.80602       -0.60669
H          3.06344       -0.34000        0.37609
H          2.54853        3.16650       -1.23890
H          2.47897        1.42784       -1.57226
H          0.23503        2.22289       -1.13531
H          0.74182        1.16651        0.18866
H          0.63326        4.07878        0.32833
H         -0.15819        2.97627        1.23674
H          4.22304        2.14409        0.09319
H          2.97915        2.41621        1.12767
C          2.35856        2.17971       -0.78353
C          0.92171        2.13737       -0.27992
N          3.27194        1.87317        0.31798
N          0.71136        3.15714        0.74687
