40
2msa1dma1eda_169.log	Energy: -1038021.7107938
S          1.04186        1.97694        0.01520
O          2.29063        1.36747       -0.47546
O          0.82269        1.89519        1.46663
O         -0.14050        1.41589       -0.76088
C          1.08733        3.70521       -0.42011
H          1.93786        4.15402        0.09362
H          1.20283        3.78493       -1.50089
H          0.15484        4.16498       -0.09216
S         -2.96502       -0.31016       -0.16368
O         -2.16725       -1.29817        0.57795
O         -3.06763       -0.52353       -1.60007
O         -2.46654        1.13966        0.16389
H         -1.50173        1.30184       -0.17781
C         -4.58220       -0.22536        0.56197
H         -5.05178       -1.19614        0.40133
H         -4.47219       -0.01707        1.62562
H         -5.14021        0.56350        0.05849
N          1.40924       -1.04487        1.81092
C          2.84603       -1.03105        2.07627
C          0.68174       -2.02328        2.61447
H          1.04185       -0.10837        1.98769
H          3.30141       -1.94536        1.68498
H          3.28966       -0.17772        1.55970
H          3.06760       -0.94873        3.15089
H          1.01943       -3.03282        2.35453
H          0.83726       -1.88230        3.69424
H         -0.38760       -1.94675        2.39963
H          1.23138       -3.20629       -1.28167
H          0.25755       -2.39808       -2.53775
H          2.66811       -2.30995       -3.05466
H          1.99932       -0.68825       -2.84058
H          4.18708       -1.40289       -1.63352
H          3.09771       -0.49523       -0.82398
H         -0.53399       -1.69854       -0.41196
H          0.96828       -1.30070        0.21039
C          0.99887       -2.24619       -1.74824
C          2.26623       -1.61575       -2.31000
N          0.39639       -1.38056       -0.71096
N          3.24798       -1.40717       -1.25408
H          0.26126       -0.40777       -1.03422
