44
2msa2tma_34.log	Energy: -1052599.3547290
S         -1.85643        2.10565       -0.14624
O         -0.77419        2.70179       -0.94546
O         -1.35007        1.27158        0.98453
O         -2.85832        1.34814       -0.95834
C         -2.76575        3.44231        0.60541
H         -2.07680        4.02241        1.21955
H         -3.18020        4.05778       -0.19339
H         -3.56111        3.01332        1.21493
S         -2.37787       -1.99799        0.07762
O         -2.17625       -2.23733        1.49757
O         -1.19463       -1.66088       -0.71921
O         -3.51457       -0.95026       -0.17224
H         -3.18530       -0.01790       -0.48245
C         -3.14093       -3.44238       -0.62977
H         -2.45408       -4.27605       -0.48064
H         -4.08076       -3.62184       -0.10786
H         -3.31083       -3.26078       -1.69050
N          4.67911       -0.31271       -0.11862
C          4.81836       -1.63094       -0.71689
H          4.40739       -2.39084       -0.04503
H          4.26382       -1.67328       -1.65925
H          5.87279       -1.89055       -0.92480
C          5.17460        0.72238       -1.01226
H          4.63529        0.68463       -1.96360
H          5.01112        1.70872       -0.56710
H          6.25423        0.61476       -1.22447
C          5.34291       -0.25034        1.17341
H          5.18792        0.73422        1.62587
H          4.92218       -1.00410        1.84636
H          6.43200       -0.42547        1.09850
N          1.05269        0.25919        0.34078
C          1.38776       -0.99385        1.05816
H          1.13219       -0.87060        2.11118
H          0.78933       -1.79849        0.63355
H          2.45678       -1.17761        0.93630
C          1.27583        0.14399       -1.12443
H          0.69756       -0.70171       -1.49133
H          0.91531        1.06295       -1.58859
H          2.34536        0.00106       -1.28822
C          1.77998        1.42755        0.89496
H          1.43214        2.31840        0.37074
H          1.54417        1.51485        1.95599
H          2.84856        1.26387        0.74482
H          0.03478        0.46771        0.50585
