34
2msa1a1eda_77.log	Energy: -988706.7472968
S         -2.29811       -0.95383       -0.15114
O         -3.51058       -1.76241       -0.13636
O         -1.29479       -1.33769        0.91044
O         -2.51315        0.52363       -0.05878
H         -1.30328        1.13553        0.89877
C         -1.47574       -1.22052       -1.71391
H         -2.15197       -0.87963       -2.49893
H         -0.54055       -0.65532       -1.72665
H         -1.28835       -2.28967       -1.82744
S          2.29672       -0.30425       -0.30409
O          1.86376       -0.03117        1.10282
O          1.46973        0.39710       -1.29736
O          2.41912       -1.77478       -0.54208
H          1.42414       -2.59784        0.42989
C          3.95527        0.33502       -0.45201
H          4.58603       -0.16107        0.28554
H          4.30636        0.12704       -1.46292
H          3.92112        1.40990       -0.27243
N          0.71281       -2.95743        1.13004
H          0.52518       -3.94764        1.00388
H         -0.17950       -2.37220        1.00301
H          1.07917       -2.78843        2.06341
H          0.49129        2.46400       -0.79316
H          0.37475        4.17519       -0.35222
H          0.91310        2.99470        1.65612
H         -0.80064        3.48907        1.77203
H          0.33082        0.80142        1.21524
H         -0.68521        1.24684        2.43859
H         -1.51141        3.78005       -1.62508
H         -1.93460        2.41729       -0.82592
C         -0.11401        3.20135       -0.24595
C         -0.08726        2.85781        1.23789
N         -1.48896        3.32668       -0.71938
N         -0.46337        1.43369        1.46310
