40
2msa1dma1eda_346.log	Energy: -1038016.3435170
S          2.17766        1.61867       -0.27882
O          0.92568        1.75799        0.48623
O          2.82005        2.83700       -0.71931
O          1.92208        0.72701       -1.54617
C          3.29356        0.64659        0.70865
H          3.54343        1.24639        1.58494
H          2.78619       -0.27774        0.99886
H          4.18413        0.44770        0.11244
S          0.54797       -2.22135        0.15904
O         -0.90374       -1.98675        0.00510
O          1.06721       -1.74576        1.47050
O          1.35266       -1.68504       -0.98157
H          1.62426       -0.22222       -1.30994
C          0.80726       -3.98281        0.10333
H          0.25246       -4.43051        0.92803
H          0.43871       -4.34955       -0.85468
H          1.87533       -4.17334        0.20703
N         -2.85722        0.82909       -1.94551
C         -3.21592       -0.51215       -2.40137
C         -1.40797        1.00842       -1.88378
H         -3.25580        1.51905       -2.57390
H         -2.84774       -1.24087       -1.67283
H         -4.30391       -0.60308       -2.46805
H         -2.77992       -0.76368       -3.38144
H         -0.99610        0.26688       -1.19410
H         -0.90726        0.86331       -2.85311
H         -1.16299        2.00560       -1.50979
H         -2.21523        0.52881        3.39489
H         -1.06647        1.85401        3.06236
H         -3.40989        2.39234        2.25259
H         -2.23041        2.36413        0.94314
H         -4.40868        0.53077        1.31131
H         -3.46921        0.80750       -0.04905
H         -0.30461       -0.48026        2.30312
H         -1.52356       -0.39314        1.19896
C         -1.72300        1.10773        2.60979
C         -2.75808        1.73285        1.66780
N         -0.90549        0.18149        1.79940
N         -3.46899        0.67571        0.96894
H         -0.25754        0.70752        1.18108
