42
2msa2eda_454.log	Energy: -1072748.6593371
S         -2.91613       -1.41996        0.00920
O         -4.30928       -1.86119       -0.01200
O         -2.63707       -0.21672        0.83504
O         -2.33711       -1.22288       -1.37654
H         -1.73680        0.12375       -1.51987
C         -1.94374       -2.74191        0.71733
H         -2.32567       -2.92950        1.72184
H         -2.06861       -3.62803        0.09395
H         -0.90004       -2.42336        0.74787
S          1.23422        0.30824        1.03089
O          1.08413       -1.10290        0.63161
O          0.98720        1.25431       -0.10695
O          2.58851        0.59781        1.61905
H          3.56422        0.74773        0.42221
C          0.04110        0.65793        2.29441
H         -0.93981        0.36254        1.90531
H          0.30698        0.06645        3.17114
H          0.08214        1.72526        2.51634
H          5.59606       -0.49183       -1.41948
H          5.56659       -0.58135        0.36286
H          4.55876       -2.63693       -0.82445
H          3.48282       -1.85184        0.33988
H          3.06451       -2.04702       -2.46212
H          2.04284       -1.54397       -1.25641
H          4.64910        1.54626       -0.65121
H          3.41070        0.57032       -1.24307
C          4.95134       -0.54172       -0.53787
C          3.98133       -1.72862       -0.62552
N          4.12206        0.69023       -0.50101
N          2.97719       -1.45186       -1.64931
H         -2.20373        2.95416       -2.24212
H         -3.30815        1.72586       -1.58050
H         -3.05119        3.46037        0.06860
H         -2.26361        2.00997        0.66003
H         -0.13695        3.00427        0.15016
H         -0.86611        4.35054       -0.47951
H         -0.99826        1.10651       -2.67795
H         -0.46964        1.20669       -1.10934
C         -2.32287        2.18635       -1.47074
C         -2.18249        2.81021       -0.07934
N         -1.31106        1.11419       -1.71078
N         -0.97456        3.57885        0.16868
