38
2msa1ma1tma_77.log	Energy: -1003280.1053298
S          1.61836       -1.55913       -0.31662
O          0.31996       -2.15388       -0.64878
O          1.87906       -1.27995        1.08800
O          1.88647       -0.30365       -1.21266
H          1.04566        0.28696       -1.42768
C          2.90035       -2.63090       -0.92738
H          2.84025       -3.55933       -0.35868
H          2.72601       -2.81060       -1.98761
H          3.86139       -2.14348       -0.76430
S         -0.94529        1.64405       -0.72155
O         -2.36329        1.57736       -1.10733
O         -0.01591        1.18377       -1.80356
O         -0.66653        0.89518        0.54945
H         -1.60464       -0.41447        0.62624
C         -0.52041        3.33809       -0.39679
H         -0.62692        3.88871       -1.33191
H         -1.21223        3.71771        0.35581
H          0.51108        3.34896       -0.02876
N          2.24769        2.08578        0.94721
H          1.51894        1.44726        1.25771
C          3.23484        2.27631        2.00563
H          3.70424        1.34652        2.36086
H          4.02540        2.94613        1.65331
H          2.75857        2.76114        2.86343
H          2.67674        1.62060        0.15311
N         -2.39024       -1.11424        0.76348
C         -1.88629       -2.18249        1.65777
H         -1.04905       -2.67282        1.16240
H         -1.54144       -1.72631        2.58635
H         -2.69258       -2.89155        1.86123
C         -3.49235       -0.33489        1.37702
H         -3.14605        0.07213        2.32754
H         -3.74327        0.48281        0.70002
H         -4.35261       -0.98949        1.53578
C         -2.77285       -1.63082       -0.57674
H         -3.06719       -0.77987       -1.19256
H         -1.90191       -2.11659       -1.01401
H         -3.59951       -2.33627       -0.46041
