40
2msa1dma1eda_100.log	Energy: -1038028.6865781
S         -2.29501        1.36645       -0.58942
O         -3.49215        2.18719       -0.71765
O         -2.53842       -0.10997       -0.73863
O         -1.50614        1.62104        0.66202
H         -2.12379       -0.98018        0.52667
C         -1.20231        1.77772       -1.94581
H         -1.73567        1.57890       -2.87588
H         -0.96062        2.83947       -1.87583
H         -0.30019        1.16237       -1.89014
S          1.49865       -1.52069       -0.80573
O          2.54162       -2.53940       -0.81910
O          1.86085       -0.21238       -1.40740
O          0.93145       -1.28392        0.58943
H          1.10067        0.42044        0.83849
C          0.11435       -2.13387       -1.75635
H          0.43865       -2.21572       -2.79431
H         -0.14487       -3.12304       -1.37519
H         -0.72457       -1.43821       -1.66645
N         -1.68443       -1.56320        1.29891
C         -2.16467       -2.95437        1.21576
C         -1.92885       -0.90931        2.60077
H         -0.66306       -1.52836        1.07282
H         -3.23745       -2.97920        1.41332
H         -1.97656       -3.33311        0.21116
H         -1.63604       -3.57071        1.94507
H         -2.99411       -0.96296        2.83180
H         -1.35239       -1.41363        3.37862
H         -1.63920        0.13767        2.50722
H          2.17057        3.09832        1.59720
H          1.91343        1.72845        2.71064
H          4.30854        1.94009        1.91309
H          3.58610        0.38106        1.50733
H          4.76109        2.00577       -0.29570
H          3.55610        0.96435       -0.71876
H          0.19428        1.80901        0.85229
H          1.48437        1.61666       -0.20021
C          2.18473        2.01040        1.69053
C          3.55283        1.45737        1.28725
N          1.17171        1.46078        0.76493
N          3.79877        1.75132       -0.11999
