32
2msa1a1dma_06.log	Energy: -953977.9650265
S          2.32885       -0.30940       -0.23636
O          1.70131        0.84881       -0.92800
O          1.84130       -1.62005       -0.74510
O          2.22873       -0.20975        1.24419
H          1.09249       -1.67412        1.94913
C          4.06214       -0.23078       -0.64727
H          4.15716       -0.29615       -1.73119
H          4.45846        0.71601       -0.27999
H          4.56364       -1.07066       -0.16614
S         -2.46864       -0.58277       -0.19312
O         -3.71677       -1.29915        0.03898
O         -1.49280       -0.66349        0.95695
O         -2.61557        0.84882       -0.58967
H         -1.30182        1.68598       -0.08325
C         -1.62966       -1.37562       -1.56118
H         -1.52157       -2.43744       -1.33404
H         -2.24779       -1.24809       -2.45044
H         -0.64876       -0.91577       -1.69613
N          0.43458       -2.31349        1.48172
H         -0.46241       -1.75430        1.29752
H          0.27294       -3.16796        2.00404
H          0.88561       -2.46984        0.56039
N         -0.40707        2.18172        0.17614
C         -0.28630        2.24999        1.64648
C         -0.36299        3.48989       -0.50311
H          0.37036        1.59181       -0.19979
H         -1.07382        2.89507        2.04012
H         -0.40584        1.24057        2.03642
H          0.69664        2.64359        1.90957
H         -1.18595        4.11145       -0.14644
H          0.59149        3.97637       -0.29536
H         -0.46566        3.32814       -1.57604
