40
2msa1dma1eda_63.log	Energy: -1038036.6499054
S         -2.75301        0.77578       -0.00552
O         -2.14361        2.02866        0.51506
O         -3.29737       -0.12838        1.01882
O         -1.79275        0.06750       -0.92259
C         -4.12022        1.28234       -1.03502
H         -4.83317        1.81341       -0.40387
H         -3.74191        1.93670       -1.82050
H         -4.57605        0.38912       -1.46232
S          2.21347       -1.16521       -0.40029
O          1.67899       -2.55112       -0.45305
O          1.66228       -0.42941        0.79384
O          2.02889       -0.38967       -1.63894
C          3.96573       -1.30608       -0.11213
H          4.12003       -1.86570        0.81052
H          4.40620       -1.82924       -0.96110
H          4.36817       -0.29518       -0.02725
N         -0.97051       -2.27230        0.28200
C         -1.99021       -3.22687       -0.19508
C         -0.92037       -2.13023        1.75639
H         -0.01753       -2.52390       -0.06176
H         -2.97063       -2.86906        0.12332
H         -1.94702       -3.27203       -1.28337
H         -1.79105       -4.21351        0.22624
H         -1.86506       -1.70321        2.09443
H         -0.74738       -3.11249        2.19995
H         -0.09116       -1.46358        1.99409
H         -1.19712       -1.34361       -0.14464
H          2.21863        2.35357       -1.32282
H          0.95074        3.60276       -1.17109
H          2.60660        4.18497        0.42650
H          1.28274        3.48079        1.35597
H          3.51287        2.63083        1.97101
H          2.64503        1.38353        1.34853
H          0.14393        1.25347       -1.28783
H          0.84480        0.93357        0.13833
C          1.45507        2.77558       -0.66627
C          2.08636        3.24542        0.63744
N          0.44463        1.71586       -0.42606
N          3.06728        2.28405        1.12943
H         -0.42838        2.04467        0.03602
