37
2msa1ma1eda_534.log	Energy: -1013346.4859327
S         -2.00510       -1.74850        0.05663
O         -1.93525       -3.19009        0.19113
O         -1.63447       -0.91175        1.20176
O         -3.46506       -1.37602       -0.39915
H         -3.60178       -0.33927       -0.50431
C         -1.01206       -1.23301       -1.32990
H          0.03201       -1.44353       -1.08965
H         -1.33739       -1.79604       -2.20499
H         -1.14866       -0.15839       -1.47630
S          1.97972        0.40146        0.55919
O          2.08779       -0.88700       -0.13589
O          1.25201        1.46888       -0.11823
O          3.42491        0.89277        0.91686
H          4.16297        0.27461        0.42022
C          1.24721        0.14645        2.15385
H          0.23461       -0.23017        1.98445
H          1.84854       -0.58495        2.69348
H          1.23372        1.10403        2.67463
N          5.03001       -0.59893       -0.36459
H          5.93647       -0.79841        0.04725
C          5.16688       -0.04774       -1.72224
H          5.72122       -0.70993       -2.39421
H          4.16744        0.11589       -2.12956
H          5.67710        0.91561       -1.66621
H          4.49400       -1.46431       -0.38849
H         -4.00865        3.10214        0.00672
H         -3.97113        1.76722        1.17534
H         -1.81451        3.03266        1.09347
H         -1.63193        1.31760        0.71027
H         -1.53227        3.50764       -1.21818
H         -0.46654        2.29196       -0.95136
H         -4.84804        1.21856       -1.11222
H         -3.29513        1.40048       -1.63658
C         -3.55845        2.12366        0.22710
C         -2.04168        2.26189        0.34313
N         -3.87413        1.15073       -0.83204
N         -1.45544        2.52641       -0.97057
