26
2msa2a_58.log	Energy: -904639.8323489
S          2.44047        0.29665        0.20564
O          2.58404        0.25758        1.65473
O          1.08684        0.76995       -0.26633
O          2.76919       -0.98553       -0.50044
H          1.49291       -1.70192       -0.99437
C          3.59391        1.49288       -0.43844
H          3.38859        2.44951        0.04232
H          4.59899        1.14901       -0.19280
H          3.46021        1.56298       -1.51760
S         -1.87418       -0.50148        0.27790
O         -1.32112       -1.75595        0.81061
O         -1.88700       -0.42389       -1.18950
O         -1.12678        0.73161        0.88116
H         -0.15829        0.78221        0.50064
C         -3.49744       -0.23926        0.92447
H         -3.85271        0.71324        0.51681
H         -4.10850       -1.07626        0.58499
H         -3.42559       -0.22477        2.01186
N          0.54430       -2.12893       -1.27940
H          0.66170       -2.95613       -1.85700
H         -0.01301       -1.42040       -1.76831
H          0.00364       -2.34442       -0.42568
N         -3.30278        2.44414       -0.90533
H         -2.54949        2.88671       -0.38882
H         -3.79758        3.16562       -1.41755
H         -2.87243        1.81340       -1.57607
