41
2msa1dma1tma_126.log	Energy: -1027939.8429497
S          2.71354       -0.68369       -0.49869
O          3.44987       -0.85937       -1.73535
O          2.75930       -1.73699        0.51233
O          1.16265       -0.48250       -0.79878
C          3.18638        0.86561        0.24219
H          2.49838        1.10316        1.05530
H          4.20937        0.73914        0.59858
H          3.13297        1.64034       -0.52289
S         -0.44077        2.12554        0.17508
O          0.38602        2.24947        1.38735
O         -1.50612        1.09019        0.30549
O          0.36385        1.90919       -1.07303
H          0.90884        0.47320       -1.05740
C         -1.27215        3.68026       -0.07923
H         -1.89003        3.87954        0.79654
H         -0.51085        4.45164       -0.19601
H         -1.88262        3.60073       -0.97860
N         -2.88979       -1.63221       -1.35738
C         -1.83631       -1.14906       -2.24954
C         -3.96085       -0.65192       -1.20197
H         -3.27966       -2.48701       -1.74287
H         -1.41264       -0.23279       -1.83166
H         -1.03514       -1.88962       -2.32091
H         -2.20037       -0.92456       -3.26532
H         -3.55290        0.23641       -0.71067
H         -4.40858       -0.34073       -2.16047
H         -4.75478       -1.06525       -0.57147
N         -0.89424       -1.34322        1.42369
C         -2.26859       -1.32593        1.98427
H         -2.48114       -0.31649        2.33450
H         -2.95520       -1.59577        1.18196
H         -2.32322       -2.04405        2.80529
C         -0.55646       -2.66540        0.83724
H         -1.30431       -2.88481        0.07499
H          0.44072       -2.60771        0.40343
H         -0.57809       -3.41199        1.63439
C          0.11338       -0.90299        2.42631
H          1.10721       -1.05172        2.00375
H         -0.05051        0.15426        2.63963
H         -0.00346       -1.51147        3.32571
H         -0.90727       -0.61912        0.67821
