26
2msa2a_11.log	Energy: -904654.7345379
S         -2.22088       -0.06191       -0.19229
O         -1.58291       -1.27803       -0.76810
O         -1.85910        1.18573       -0.91838
O         -1.98146        0.05264        1.27229
H         -0.94116        1.91239        1.73088
C         -3.97489       -0.27546       -0.42687
H         -4.16185       -0.37135       -1.49648
H         -4.28305       -1.17840        0.10036
H         -4.48274        0.60043       -0.02310
S          2.47111        0.02279       -0.13232
O          3.71827        0.77468       -0.09887
O          1.46297        0.46294        0.90764
O          2.60532       -1.46185       -0.04600
H          1.23243       -2.04230        0.61944
C          1.67603        0.33959       -1.70321
H          1.54938        1.41689       -1.81986
H          2.32888       -0.04597       -2.48702
H          0.70589       -0.16102       -1.71998
N         -0.33165        2.32127        1.01754
H         -0.09712        3.28818        1.21652
H         -0.86413        2.19420        0.12947
H          0.52911        1.68313        0.95450
N          0.26487       -2.12590        1.04764
H          0.12294       -3.00854        1.52804
H         -0.45955       -1.96733        0.30678
H          0.17329       -1.33564        1.68969
