28
2msa1dma_64.log	Energy: -918452.4835630
S         -0.72272        1.34846       -0.01015
O         -0.61019        0.21299       -0.94439
O          0.17600        2.46624       -0.25109
O         -0.54529        0.80331        1.47022
H          0.32833        0.32810        1.51851
C         -2.40761        1.86130        0.06371
H         -2.63986        2.28885       -0.91261
H         -3.01146        0.96420        0.27044
H         -2.49281        2.61596        0.84571
S          2.63612       -0.66866        0.04343
O          3.71134       -1.62427        0.13836
O          1.79966       -0.42649        1.22849
O          1.69793       -1.12765       -1.15302
H          0.82059       -0.66052       -1.11858
C          3.26153        0.90244       -0.50683
H          3.95582        1.25235        0.25826
H          3.77797        0.74436       -1.45341
H          2.42518        1.59693       -0.61465
N         -3.70826       -1.08508        0.27132
C         -2.71039       -1.95645        0.88290
C         -3.83709       -1.31048       -1.16353
H         -4.60594       -1.23356        0.71995
H         -1.73361       -1.74243        0.44024
H         -2.64620       -1.75257        1.95446
H         -2.92154       -3.02853        0.73621
H         -2.89663       -1.03358       -1.65087
H         -4.05950       -2.35853       -1.42365
H         -4.63123       -0.67603       -1.56777
