32
2msa2ma_235.log	Energy: -953946.3516517
S          2.81846       -0.64040       -0.07251
O          2.37655       -0.93683        1.28379
O          3.11935        0.74654       -0.40585
O          1.78934       -1.24678       -1.11855
H          0.86794       -0.89538       -0.93840
C          4.22488       -1.64520       -0.48127
H          5.03957       -1.31668        0.16473
H          3.97508       -2.68831       -0.29091
H          4.47184       -1.47941       -1.52939
S         -1.42628       -0.15486        0.54164
O         -0.56749       -0.22082       -0.65605
O         -2.01550       -1.41929        0.98331
O         -2.56811        0.87454        0.26377
H         -3.50507        0.34491        0.10220
C         -0.51108        0.60908        1.84360
H          0.31978       -0.06063        2.07760
H         -0.12450        1.56711        1.46593
H         -1.18064        0.73109        2.69497
N         -4.65355       -0.51455       -0.11533
H         -4.53941       -1.22066        0.60913
C         -4.54131       -1.13330       -1.44702
H         -5.31315       -1.88733       -1.62827
H         -4.61228       -0.35499       -2.20885
H         -3.55941       -1.60351       -1.52641
H         -5.55868       -0.07263        0.01343
N          1.00651        2.98128        0.21985
H          1.37126        3.86080        0.56898
C          0.26098        3.18602       -1.02162
H          0.84332        3.65233       -1.83020
H         -0.10438        2.21938       -1.37769
H         -0.61394        3.81270       -0.82333
H          1.80318        2.37006        0.05318
