42
2msa2eda_434.log	Energy: -1072750.1706058
S         -2.58888       -0.03667       -0.84471
O         -1.80250       -1.18200       -1.32756
O         -1.94144        1.28824       -1.11111
O         -3.00837       -0.16947        0.58046
C         -4.10327        0.01562       -1.78204
H         -3.84411        0.13989       -2.83346
H         -4.62730       -0.92676       -1.62222
H         -4.69814        0.85702       -1.42725
S          1.11208        2.06810        0.46058
O          2.47782        1.57153        0.43912
O          0.20170        1.59407        1.50312
O          0.48289        1.83452       -0.95629
H         -0.52546        1.57513       -0.95550
C          1.17020        3.84462        0.56312
H          1.63199        4.10099        1.51709
H          1.77179        4.21301       -0.26764
H          0.15061        4.22638        0.50881
H         -0.63064       -2.33253        3.57463
H         -2.11773       -2.50608        2.59852
H         -0.07520       -3.67901        1.57771
H         -0.80448       -2.46259        0.51776
H          1.79719       -2.30700        1.72360
H          1.16729       -1.48558        0.44326
H         -1.41756       -0.13881        3.33791
H         -0.22398       -0.30830        2.17711
C         -1.10403       -2.10089        2.61693
C         -0.24353       -2.60325        1.44891
N         -1.16793       -0.62477        2.48105
N          0.97537       -1.81343        1.39858
H         -1.85550       -0.35331        1.72818
H          3.86764       -0.52176       -2.09325
H          4.42350       -2.18940       -1.90389
H          2.27350       -2.10878       -3.04928
H          2.13976       -2.96394       -1.49942
H          1.40017       -0.12679       -1.77043
H          0.32035       -1.35332       -1.73684
H          4.76291       -1.13578        0.14095
H          3.25863       -0.52303        0.20461
C          3.67612       -1.46773       -1.55625
C          2.29564       -1.97867       -1.95520
N          3.79827       -1.32892       -0.10608
N          1.25945       -1.08228       -1.45636
