25
2msa1ma_79.log	Energy: -893786.1134441
S          1.80388       -0.72372        0.08914
O          1.35078        0.14185        1.16609
O          1.08506       -1.98213       -0.10921
O          3.36087       -1.07079        0.35661
H          3.49849       -1.17154        1.31053
C          1.97384        0.11465       -1.45661
H          0.96791        0.16107       -1.87509
H          2.34003        1.12382       -1.26473
H          2.64131       -0.47913       -2.08118
S         -2.13653       -0.41026       -0.13623
O         -3.53530       -0.47808       -0.48891
O         -1.17835        0.21044       -1.05119
O         -1.65387       -1.90467        0.15278
H         -0.67719       -1.98413        0.03751
C         -1.96209        0.37149        1.45236
H         -2.31187        1.39901        1.34082
H         -2.58186       -0.17016        2.16663
H         -0.90693        0.35075        1.72940
N          0.46241        2.89954       -0.75593
H          0.22750        3.65452       -1.39136
C          0.39752        3.35642        0.63059
H         -0.58353        3.75068        0.93929
H          0.65732        2.52293        1.28812
H          1.13957        4.14415        0.79108
H         -0.21435        2.15668       -0.91346
