42
2msa2eda_31.log	Energy: -1072771.0734608
S         -2.45206        1.09873        0.01019
O         -2.48680        0.33662        1.29185
O         -1.47581        0.45957       -0.94041
O         -2.22202        2.54026        0.16464
C         -4.05403        0.87321       -0.74025
H         -4.20654       -0.19303       -0.91502
H         -4.80483        1.26641       -0.05441
H         -4.06755        1.42061       -1.68285
S          2.52325       -1.23988       -0.14623
O          3.07773        0.03944       -0.66415
O          1.36201       -1.71220       -0.94737
O          2.20470       -1.18663        1.30612
C          3.81816       -2.44886       -0.34722
H          4.05084       -2.52262       -1.40954
H          4.68785       -2.11208        0.21717
H          3.45641       -3.40316        0.03616
H          0.04170        2.57476        0.86538
H          1.22356        1.27121        1.18733
H          2.16012        3.52105        1.79871
H          3.08711        2.72250        0.52026
H          1.16739        4.90558        0.10681
H          2.73767        4.83080       -0.35608
H          0.04879        1.27066       -1.03368
H          1.02446        2.62220       -1.39279
C          1.01784        2.16493        0.59425
C          2.12767        3.19587        0.75079
N          0.94794        1.76443       -0.83616
N          1.90166        4.27917       -0.20749
H          1.75254        1.13317       -1.03787
H         -0.50467       -3.67429        0.72159
H         -1.52015       -3.16404        2.09216
H         -2.92681       -3.90962        0.19089
H         -3.19681       -2.21073        0.56016
H         -1.94268       -1.58741       -1.34662
H         -1.53058       -3.14988       -1.67579
H          0.28880       -1.57593        1.61161
H         -0.20733       -1.43057        0.08979
C         -1.23689       -2.93653        1.06112
C         -2.46810       -2.91582        0.14596
N         -0.56790       -1.61519        1.04246
N         -2.22885       -2.55856       -1.23884
H         -1.23468       -0.84946        1.29005
