40
2msa1dma1eda_524.log	Energy: -1038005.5039875
S          1.27169       -0.20645       -0.97653
O          2.32257       -0.48127       -1.95127
O         -0.12213       -0.29929       -1.55225
O          1.40603        1.13157       -0.30049
H          0.35918        2.14096       -0.76078
C          1.36877       -1.41613        0.32250
H          1.25583       -2.39916       -0.13780
H          2.35277       -1.32327        0.79821
H          0.55884       -1.22764        1.02959
S         -2.70027       -1.33110        0.32932
O         -3.57755       -0.29051       -0.19995
O         -1.84627       -0.96801        1.45774
O         -1.84168       -1.96967       -0.82339
H         -1.11241       -1.31002       -1.15142
C         -3.67990       -2.74762        0.76666
H         -4.35486       -2.43108        1.56235
H         -4.24059       -3.06371       -0.11250
H         -3.01244       -3.53515        1.11476
N          4.50637       -0.81389        1.34641
C          4.34720        0.61523        1.57979
C          5.12660       -1.10637        0.05998
H          5.05622       -1.22345        2.09342
H          3.64334        1.02387        0.84765
H          3.92462        0.77948        2.57542
H          5.29392        1.17849        1.50136
H          4.46093       -0.77889       -0.74482
H          6.10368       -0.61048       -0.07635
H          5.26821       -2.18601       -0.04252
H         -2.48897        3.01668       -1.19246
H         -1.85385        1.34882       -1.16526
H         -2.90173        1.98762        1.03480
H         -1.19937        1.58430        1.18693
H         -2.35263        4.26255        1.34275
H         -1.16212        3.59340        2.23858
H         -0.26941        3.08346       -2.02925
H         -0.26342        3.70104       -0.46276
C         -1.75562        2.34479       -0.73700
C         -1.89315        2.32522        0.78026
N         -0.39466        2.86326       -1.04439
N         -1.54308        3.65286        1.30214
