42
2msa2eda_457.log	Energy: -1072747.6498312
S          0.77296        2.06857       -0.75900
O          0.81716        3.52540       -0.70498
O          0.00792        1.44633        0.39033
O          2.11561        1.41285       -0.84103
H          2.81693        0.53105        0.29629
C         -0.10893        1.57015       -2.22197
H         -1.08978        2.04769       -2.19707
H          0.45957        1.91423       -3.08687
H         -0.20717        0.47904       -2.19733
S         -2.89913       -0.28493        0.37930
O         -1.94877       -1.18092        1.05167
O         -3.23769       -0.59951       -1.00211
O         -2.43728        1.19895        0.53367
H         -1.39108        1.32774        0.44388
C         -4.40061       -0.23904        1.33096
H         -4.84974       -1.23046        1.26578
H         -4.15311        0.01067        2.36208
H         -5.05985        0.51015        0.89283
H          3.55426       -0.96903        2.79552
H          3.63828        0.80308        2.69975
H          1.52351        0.17660        3.70865
H          1.23482        0.92706        2.13714
H          0.72023       -1.80823        2.85097
H         -0.03990       -0.83505        1.77831
H          4.35038       -0.04428        0.64357
H          3.07289       -1.13229        0.47307
C          3.11826       -0.08252        2.32471
C          1.62666        0.03120        2.62458
N          3.36604       -0.18258        0.86137
N          0.87512       -1.11688        2.12610
H          0.49222       -3.65066       -2.04368
H          0.61547       -2.43494       -3.32288
H          2.77953       -2.59665       -2.27993
H          2.06087       -1.03709       -1.84234
H          1.43933       -2.11354        0.31626
H          2.34003       -3.41072       -0.13344
H         -1.34040       -1.89803       -2.11446
H         -0.58284       -1.88571       -0.68269
C          0.61772       -2.56961       -2.23511
C          1.97773       -2.12133       -1.70454
N         -0.43888       -1.73972       -1.67820
N          2.21396       -2.41464       -0.28363
