22
2msa1a_25.log	Energy: -869136.3760724
S         -2.19741        0.18804       -0.10321
O         -1.82401       -1.23144       -0.02458
O         -1.85068        0.89232       -1.32468
O         -1.61553        0.93866        1.16573
H         -0.63060        0.77096        1.19971
C         -3.92783        0.34638        0.23553
H         -4.14172       -0.14961        1.18138
H         -4.16779        1.40858        0.27715
H         -4.45156       -0.13759       -0.58934
S          1.63655       -0.63660        0.10211
O          2.98517       -1.02561        0.44174
O          0.93952        0.29846        1.00340
O          0.78064       -1.97398        0.00695
H         -0.18972       -1.77417        0.00022
C          1.57538        0.03848       -1.53638
H          2.19577        0.94004       -1.49604
H          1.98806       -0.70483       -2.21863
H          0.53670        0.27473       -1.77762
N          3.60678        2.08429        0.01756
H          4.25368        2.85110       -0.12850
H          4.13892        1.27395        0.32115
H          2.98841        2.33740        0.78179
