38
2msa2dma_222.log	Energy: -1003270.9287192
S          0.51802       -0.60695        1.21133
O         -0.45842       -1.65440        1.52978
O          0.40870       -0.13289       -0.21617
O          1.94402       -1.02733        1.45191
H          2.45290       -1.72347        0.19868
C          0.21889        0.79758        2.25117
H         -0.81028        1.10951        2.06238
H          0.36066        0.48032        3.28454
H          0.91552        1.58861        1.96269
S         -3.09887        0.31199       -0.46218
O         -4.19609        0.69420       -1.32690
O         -2.54941        1.26928        0.49134
O         -1.92057       -0.19891       -1.40731
H         -1.04357       -0.14610       -0.92385
C         -3.54534       -1.16254        0.43039
H         -4.34702       -0.88774        1.11714
H         -3.89377       -1.90268       -0.28987
H         -2.66389       -1.51194        0.97240
N          1.90298        2.58593       -0.02575
C          3.25704        2.07283        0.01455
C          1.77353        3.81789       -0.78145
H          1.27273        1.87536       -0.38664
H          3.90010        2.76774        0.56660
H          3.26635        1.11493        0.54464
H          3.71030        1.93262       -0.98711
H          2.31594        4.62265       -0.27226
H          2.16980        3.74626       -1.81104
H          0.72044        4.10430       -0.83633
N          2.71546       -2.19396       -0.74450
C          3.06853       -1.12620       -1.71176
C          1.56161       -3.02604       -1.17243
H          3.52278       -2.79035       -0.56952
H          2.22868       -0.43124       -1.74612
H          3.95577       -0.60495       -1.35275
H          3.25472       -1.56424       -2.69385
H          0.71526       -2.35964       -1.33892
H          1.81488       -3.56268       -2.08827
H          1.31475       -3.72248       -0.37125
