32
2msa2ma_213.log	Energy: -953955.7601208
S         -2.55293       -0.59245        0.57887
O         -3.51026       -0.95589        1.61201
O         -1.15638       -0.33961        1.11638
O         -2.94291        0.58442       -0.26176
H         -1.76948        1.64141       -0.22066
C         -2.39217       -1.96420       -0.54973
H         -2.08345       -2.83943        0.02332
H         -3.37131       -2.13120       -0.99940
H         -1.65176       -1.71248       -1.31120
S          1.35145       -0.46112       -1.05210
O          1.40106        0.98934       -0.77203
O          0.47704       -0.86097       -2.14671
O          0.99301       -1.23569        0.26217
H          0.06768       -0.91683        0.63598
C          3.00134       -1.03583       -1.31926
H          3.35911       -0.54153       -2.22341
H          3.60887       -0.76822       -0.44433
H          2.95361       -2.11505       -1.46602
N          4.48662       -0.05844        1.48281
H          4.84900       -0.80041        2.07210
C          3.31810        0.57100        2.10430
H          3.51837        1.03916        3.07831
H          2.92060        1.32824        1.42355
H          2.53589       -0.18066        2.23266
H          5.23579        0.61499        1.36309
N         -0.94881        2.30592       -0.05745
H         -0.87240        2.39150        0.95503
C         -1.14027        3.60818       -0.72576
H         -0.28791        4.25856       -0.52829
H         -1.22692        3.43504       -1.79781
H         -2.05689        4.07005       -0.35948
H         -0.08443        1.82386       -0.37707
