40
2msa1dma1eda_149.log	Energy: -1038023.2838722
S         -0.75557        1.98889       -0.14130
O         -0.48002        1.46993        1.22029
O         -2.08976        1.61992       -0.65537
O          0.33162        1.60626       -1.10454
C         -0.70447        3.76622       -0.03186
H         -1.48886        4.08404        0.65516
H          0.27725        4.05460        0.34429
H         -0.87447        4.17282       -1.02880
S          2.81709       -0.48057        0.25052
O          2.01207       -1.53253       -0.38399
O          2.61567       -0.29987        1.68088
O          2.66319        0.86761       -0.53329
H          1.68236        1.15510       -0.70403
C          4.53506       -0.79542       -0.07129
H          4.67436       -0.90121       -1.14648
H          5.11444        0.03915        0.32266
H          4.78899       -1.72018        0.44749
N         -1.62311       -1.22277       -1.64017
C         -2.66883       -2.22046       -1.84792
C         -0.56573       -1.26978       -2.64926
H         -2.02989       -0.28730       -1.62562
H         -2.23072       -3.22210       -1.77216
H         -3.42385       -2.10656       -1.06607
H         -3.14406       -2.13293       -2.83629
H         -0.01805       -2.21296       -2.55869
H         -0.96513       -1.19291       -3.67135
H          0.12959       -0.44776       -2.47237
H         -1.85545       -2.85639        1.45311
H         -0.84910       -2.19220        2.76662
H         -3.19246       -1.50737        3.00631
H         -2.13611       -0.10794        2.76769
H         -4.31904       -0.35600        1.41124
H         -2.99810        0.15029        0.60555
H          0.34222       -1.79707        0.75828
H         -1.01021       -1.29638       -0.11733
C         -1.44548       -1.94001        1.88550
C         -2.57203       -0.98664        2.27032
N         -0.55566       -1.32013        0.87673
N         -3.39345       -0.64131        1.11410
H         -0.34577       -0.33648        1.13383
