42
2msa2eda_120.log	Energy: -1072768.3727416
S         -2.29379       -0.57581       -0.79397
O         -1.82482       -1.82510       -1.46508
O         -1.67721        0.65099       -1.33658
O         -2.14009       -0.67428        0.68778
H         -0.94882        0.51314        1.26894
C         -4.04338       -0.47946       -1.11367
H         -4.18705       -0.40836       -2.19193
H         -4.51510       -1.37840       -0.71725
H         -4.42388        0.41090       -0.61225
S          2.42870        0.65500       -1.08539
O          3.82039        0.93586       -1.41620
O          1.78229        1.66164       -0.19339
O          2.23667       -0.73041       -0.50541
H          1.05556       -1.77656       -0.34386
C          1.47490        0.66130       -2.59396
H          1.86936       -0.11586       -3.24980
H          0.42352        0.49135       -2.34999
H          1.60281        1.64192       -3.05403
H          0.05517        3.50671        0.70834
H         -0.91548        4.19826        2.01607
H          0.63390        2.47643        2.84970
H         -1.06768        2.00333        3.12488
H          0.57105        1.14337        0.80531
H          0.42025        0.20440        2.16359
H         -2.48156        3.76270        0.41159
H         -1.86553        2.31477       -0.02405
C         -0.76061        3.29649        1.41553
C         -0.30534        2.19593        2.36651
N         -2.01871        2.93613        0.77027
N         -0.06737        0.93829        1.61744
H          2.11333       -3.36997        1.80895
H          0.98393       -3.09046        3.13454
H         -0.32277       -3.86734        1.30537
H         -0.68884       -2.14605        1.48866
H          0.91114       -3.40962       -0.61721
H         -0.45756       -2.42249       -0.75204
H          2.37366       -1.24031        3.07307
H          2.20456       -1.00822        1.46100
C          1.29719       -2.71597        2.15524
C          0.09562       -2.86056        1.23088
N          1.71482       -1.31953        2.30529
N          0.42401       -2.61730       -0.20297
