37
2msa1ma1eda_277.log	Energy: -1013359.9403883
S         -2.32536       -0.51871       -0.12240
O         -2.01174       -1.25206        1.10417
O         -1.45285       -0.80821       -1.26909
O         -2.41083        1.00842        0.13115
H         -1.45560        1.44799        0.42707
C         -4.00784       -0.85641       -0.58249
H         -4.07930       -1.92729       -0.77480
H         -4.65401       -0.56849        0.24629
H         -4.24229       -0.28572       -1.48064
S          0.82751        2.31807       -0.15544
O          1.37482        3.64783        0.06601
O         -0.29091        1.97118        0.81553
O          1.81942        1.20627       -0.13882
H          1.30972        0.04100        1.06665
C          0.07353        2.27866       -1.77319
H         -0.69424        3.05236       -1.80919
H          0.85695        2.48826       -2.50210
H         -0.35945        1.28985       -1.93728
N          1.27451       -0.77060        1.71891
H          0.89279       -1.58642        1.15954
C          0.53276       -0.46961        2.95787
H          0.61971       -1.31104        3.64671
H          0.93958        0.43319        3.41299
H         -0.51363       -0.31544        2.70112
H          2.25716       -1.01257        1.85586
H          2.36876       -3.79833       -0.49252
H          1.35253       -3.55157       -1.91835
H          3.03148       -1.97962       -2.24580
H          1.74490       -1.01041       -1.53042
H          4.21840       -1.82520       -0.24722
H          3.47906       -0.36055       -0.30027
H         -0.15670       -2.29475       -0.57409
H          0.14885       -3.66486        0.26215
C          1.69332       -3.08711       -0.98177
C          2.46298       -1.81025       -1.32005
N          0.57259       -2.80699       -0.07548
N          3.31706       -1.36087       -0.21399
