35
2msa1ma1dma_78.log	Energy: -978628.4896968
S          2.42698        0.32497       -0.45982
O          2.14966        0.87900        0.88719
O          1.59658        0.90443       -1.53227
O          2.39672       -1.17830       -0.44490
H          1.46489       -1.76894        0.70978
C          4.12102        0.73560       -0.85316
H          4.76731        0.32193       -0.07885
H          4.35658        0.30183       -1.82514
H          4.20752        1.82202       -0.88712
S         -2.12359       -0.96229       -0.59935
O         -2.97535       -2.14222       -0.48669
O         -1.36872       -0.63167        0.66307
O         -2.83216        0.27976       -1.06014
H         -2.29820        1.52517       -0.35326
C         -0.88548       -1.28359       -1.84196
H         -0.34865       -2.19410       -1.57076
H         -1.40382       -1.42589       -2.79084
H         -0.18873       -0.44294       -1.88664
N          0.76614       -2.01451        1.47532
H         -0.12954       -1.53083        1.19195
C          1.24588       -1.51590        2.78329
H          0.47108       -1.65637        3.53779
H          2.15026       -2.05416        3.06864
H          1.48072       -0.45882        2.65522
H          0.60228       -3.01829        1.48268
N         -2.00121        2.38795        0.22317
C         -0.51871        2.48685        0.25547
C         -2.61667        2.24368        1.56220
H         -2.39126        3.19946       -0.25356
H         -0.12140        1.63078        0.79820
H         -0.12415        2.44139       -0.75964
H         -0.22613        3.41631        0.74759
H         -2.25604        1.30378        1.98084
H         -2.33127        3.08623        2.19498
H         -3.70018        2.19675        1.45030
