43
2msa1eda1tma_186.log	Energy: -1062673.9049780
S          2.97544        1.60405       -0.08391
O          4.00748        2.60627        0.07486
O          2.06648        1.36680        1.05291
O          3.65874        0.24352       -0.46111
H          3.04903       -0.61402       -0.32754
C          1.97370        1.99043       -1.49955
H          1.52644        2.96801       -1.31452
H          2.62651        2.02504       -2.37187
H          1.19342        1.22988       -1.59022
S         -1.05262       -1.24852       -0.96542
O         -0.17120       -2.09818       -1.79609
O         -0.52400        0.12786       -0.78958
O         -1.32753       -1.87117        0.37845
H         -0.25987       -1.20657        1.38490
C         -2.62496       -1.13144       -1.78533
H         -2.44868       -0.69442       -2.76895
H         -3.02826       -2.13991       -1.88247
H         -3.28601       -0.49415       -1.18744
H          2.58509       -1.01475        2.28489
H          1.48608       -2.21145        3.01172
H          2.73584       -3.27943        1.27903
H          1.03361       -3.21589        0.80465
H          2.97899       -2.55726       -0.79964
H          1.50637       -1.89686       -0.92643
H          0.24334       -0.28761        2.72877
H          0.86512        0.06363        1.25223
C          1.70432       -1.63671        2.10860
C          1.93378       -2.60996        0.95679
N          0.55793       -0.71979        1.86247
N          2.32668       -1.95443       -0.30465
N         -4.20222        1.04505        0.29622
C         -3.20982        2.08338        0.06428
H         -2.21695        1.63410       -0.02871
H         -3.43467        2.60368       -0.87194
H         -3.19162        2.83320        0.87901
C         -5.54413        1.59649        0.33824
H         -5.76307        2.10845       -0.60355
H         -6.27521        0.79274        0.46761
H         -5.67820        2.32263        1.16374
C         -3.90003        0.29156        1.50107
H         -4.64667       -0.49594        1.64185
H         -2.92360       -0.19084        1.39908
H         -3.89576        0.93023        2.40674
