40
2msa1dma1eda_372.log	Energy: -1038016.3949414
S          0.71817        2.35882       -0.01247
O          0.83339        3.74135        0.39196
O          0.16254        1.54866        1.22240
O          1.93487        1.68265       -0.50608
H          2.71113        0.22941       -0.12266
C         -0.53191        2.17063       -1.25564
H         -1.47654        2.56166       -0.86752
H         -0.19698        2.73698       -2.12576
H         -0.62116        1.10525       -1.48635
S         -0.01771       -1.84414       -0.21996
O          1.26272       -2.38914       -0.75500
O         -0.83974       -1.13909       -1.21728
O          0.25063       -1.00519        0.99891
H          0.17433        0.54413        1.07907
C         -0.95059       -3.25041        0.34773
H         -1.06823       -3.92894       -0.49748
H         -0.39382       -3.72823        1.15358
H         -1.92884       -2.90730        0.68777
N          3.20379       -0.67787        0.01347
C          3.46132       -0.87280        1.45602
C          4.40840       -0.70459       -0.83910
H          2.51386       -1.40384       -0.31227
H          4.09503       -0.06409        1.82322
H          2.49954       -0.86731        1.96867
H          3.95590       -1.83408        1.60424
H          5.09107        0.08779       -0.52869
H          4.89598       -1.67583       -0.74282
H          4.10703       -0.54477       -1.87416
H         -4.93785       -0.47341        1.10356
H         -3.39630       -1.11462        1.65415
H         -3.28175        1.32703        1.58229
H         -2.14722        0.59210        0.46589
H         -3.68830        1.10318       -1.31800
H         -4.67716        1.88117       -0.27182
H         -4.57522       -1.23677       -1.02124
H         -2.94887       -1.38829       -0.84121
C         -3.88753       -0.60294        0.81460
C         -3.21242        0.76414        0.64494
N         -3.84350       -1.46894       -0.36052
N         -3.71340        1.60764       -0.43640
