35
2msa1ma1dma_315.log	Energy: -978612.9968959
S          2.19269       -1.42586       -0.01741
O          2.82535       -2.67390        0.35807
O          2.84097       -0.15799        0.29260
O          0.74216       -1.43869        0.64711
H          0.31094       -0.52239        0.63694
C          1.82508       -1.45212       -1.75884
H          2.77739       -1.36881       -2.28415
H          1.34440       -2.40350       -1.98765
H          1.16382       -0.61277       -1.98722
S         -1.29521        1.17500       -0.60480
O         -0.69955        0.56535       -1.80080
O         -0.65612        0.70273        0.67018
O         -2.78311        0.95518       -0.51536
H         -3.05894       -0.41239        0.06644
C         -1.05207        2.92852       -0.67183
H          0.03268        3.09895       -0.64077
H         -1.49870        3.29077       -1.59811
H         -1.54255        3.37005        0.19607
N          2.08743        2.85719        0.19160
H          2.33471        1.88265        0.03474
C          1.74733        3.04286        1.60189
H          2.54068        2.74702        2.30306
H          1.50288        4.09451        1.78535
H          0.85886        2.44614        1.82826
H          2.90432        3.40747       -0.05107
N         -3.17683       -1.41648        0.46756
C         -2.81316       -1.39533        1.90589
C         -2.34322       -2.33562       -0.34958
H         -4.15976       -1.66201        0.35969
H         -1.81500       -0.96498        1.98861
H         -3.52212       -0.75979        2.43666
H         -2.83366       -2.40909        2.30902
H         -1.29262       -2.10763       -0.16411
H         -2.55195       -3.36911       -0.06786
H         -2.57061       -2.16761       -1.40229
