38
2msa2dma_194.log	Energy: -1003275.9617091
S         -3.15704        0.33832        0.36766
O         -4.30916        0.92680        1.01922
O         -3.21610       -1.03372       -0.12378
O         -1.93537        0.47031        1.38125
H         -1.21051       -0.18563        1.14921
C         -2.65309        1.38827       -0.97939
H         -3.45376        1.36497       -1.71977
H         -2.52000        2.39748       -0.58928
H         -1.72555        0.98540       -1.39201
S          0.36597       -1.46619       -0.61388
O          0.03944       -0.38576       -1.56013
O          0.04219       -1.12549        0.80649
O          1.79839       -1.90436       -0.69512
H          2.63121       -1.20571        0.42644
C         -0.62490       -2.87538       -1.04812
H         -1.66821       -2.57792       -0.92406
H         -0.40498       -3.13547       -2.08360
H         -0.36761       -3.69267       -0.37449
N          1.79787        1.88907       -0.61980
C          2.56500        2.73871       -1.51784
C          0.79562        2.63507        0.12948
H          1.31875        1.16640       -1.15548
H          3.18642        3.43064       -0.93632
H          3.22689        2.12359       -2.13531
H          1.93548        3.34326       -2.19229
H          1.28605        3.31290        0.83891
H          0.14171        3.24691       -0.51509
H          0.16222        1.94458        0.69316
N          3.31239       -0.81016        1.15629
C          2.58168        0.02192        2.14632
C          4.37395       -0.06912        0.43363
H          3.70948       -1.62643        1.61993
H          2.19001        0.88506        1.60817
H          1.75367       -0.56003        2.54750
H          3.27270        0.33378        2.93198
H          3.88673        0.77672       -0.05533
H          5.12848        0.27703        1.14243
H          4.82146       -0.73038       -0.30859
