42
2msa2eda_12.log	Energy: -1072770.2385531
S          3.06260       -0.73120       -0.08532
O          3.58000        0.53333       -0.62449
O          2.40955       -1.61407       -1.09572
O          2.14871       -0.52533        1.08713
C          4.45668       -1.65570        0.53505
H          5.12600       -1.85430       -0.30230
H          4.95713       -1.05019        1.29088
H          4.09112       -2.58793        0.96566
S         -2.65905        0.65256       -0.09463
O         -2.88605       -0.41324       -1.09190
O         -2.47650        2.00666       -0.63197
O         -1.52126        0.26786        0.82971
C         -4.10635        0.68919        0.95181
H         -4.96129        0.94800        0.32629
H         -4.24037       -0.29714        1.39700
H         -3.95583        1.44361        1.72429
H          0.05565       -3.89173       -0.09716
H          0.15657       -2.81139        1.31859
H         -1.98194       -4.20157        1.21470
H         -2.26693       -2.45997        1.28881
H         -3.27221       -4.10282       -0.63361
H         -3.03926       -2.48122       -0.85896
H          0.77046       -1.74171       -0.78616
H         -0.82737       -1.99886       -1.32314
C         -0.39315       -3.02962        0.40073
C         -1.88085       -3.26808        0.65348
N         -0.23279       -1.86441       -0.50001
N         -2.58617       -3.36102       -0.62117
H         -0.57502       -1.00945       -0.01917
H          1.95857        2.29464       -0.79248
H          0.36873        1.64414       -1.23315
H          0.46281        4.12481       -1.62350
H         -0.77932        3.64795       -0.45902
H          1.80894        4.87175        0.20151
H          0.31101        5.33765        0.66651
H          1.38693        0.99871        1.01762
H          0.91834        2.58460        1.46730
C          0.89289        2.31806       -0.55343
C          0.30027        3.72008       -0.61674
N          0.73813        1.79990        0.83180
N          0.88647        4.53208        0.45370
H         -0.22147        1.41967        0.97071
