44
2msa2tma_58.log	Energy: -1052597.1080004
S         -2.21984        0.10017        0.11641
O         -1.73283       -1.12086        0.77093
O         -2.81026        1.10625        1.03121
O         -3.21589       -0.21033       -0.99534
H         -4.53757        0.01942       -0.51338
C         -0.84512        0.86093       -0.71651
H         -0.08943        1.11194        0.02977
H         -0.42395        0.14697       -1.42605
H         -1.20806        1.75494       -1.22404
S          2.39597       -0.87743       -0.18619
O          1.91253       -0.93067       -1.56940
O          2.28404        0.45377        0.46287
O          3.83132       -1.37333       -0.05913
H          4.70691       -0.23994        0.02605
C          1.43711       -2.02563        0.77703
H          0.38874       -1.71525        0.74500
H          1.55959       -3.01440        0.33389
H          1.81407       -2.00994        1.79993
N         -5.56460        0.17799       -0.10787
C         -5.74756        1.63880        0.03615
H         -4.93802        2.01270        0.66465
H         -5.67861        2.09969       -0.95034
H         -6.72584        1.84654        0.47959
C         -6.51380       -0.41702       -1.06688
H         -6.39367        0.07256       -2.03424
H         -6.28874       -1.47877       -1.17532
H         -7.53921       -0.28752       -0.70852
C         -5.59356       -0.50496        1.20596
H         -5.36746       -1.56133        1.05508
H         -4.81889       -0.06172        1.83333
H         -6.58191       -0.38906        1.66038
N          5.37055        0.65101        0.06898
C          5.18567        1.25392        1.40765
H          4.11949        1.44499        1.53895
H          5.51926        0.53974        2.16180
H          5.76834        2.17674        1.48149
C          6.75041        0.18125       -0.15526
H          7.00947       -0.54098        0.61998
H          6.80286       -0.30750       -1.12893
H          7.44514        1.02551       -0.12429
C          4.90693        1.56033       -1.00456
H          4.97571        1.03763       -1.95954
H          3.86210        1.80513       -0.80881
H          5.52814        2.46059       -1.01821
