40
2msa1dma1eda_176.log	Energy: -1038023.1387732
S          0.61824        2.22589       -0.24498
O          1.14938        1.71985        1.03860
O         -0.79983        2.61863       -0.21267
O          0.87007        1.24434       -1.37049
C          1.57270        3.67040       -0.67097
H          1.42754        4.41082        0.11614
H          2.62175        3.38181       -0.73991
H          1.21034        4.04749       -1.62734
S          2.11181       -1.74647       -0.15824
O          2.79702       -2.98396       -0.47013
O          0.64872       -1.74713       -0.07416
O          2.56471       -0.66900       -1.21987
H          1.91598        0.11335       -1.25455
C          2.74042       -1.09090        1.37157
H          2.44846       -1.78184        2.16378
H          3.82621       -1.03643        1.29165
H          2.30155       -0.10071        1.51698
N         -1.29760       -0.00334        1.78021
C         -1.29576       -1.26587        2.50969
C         -2.25224        0.97097        2.30307
H         -0.36484        0.41217        1.78981
H         -2.27916       -1.74186        2.41767
H         -0.54975       -1.93142        2.07073
H         -1.08808       -1.13485        3.58232
H         -3.27203        0.59765        2.15147
H         -2.11442        1.16074        3.37759
H         -2.13328        1.90778        1.75431
H         -2.12844       -1.38816       -2.53013
H         -1.41386       -2.18107       -1.11132
H         -3.87056       -2.62665       -1.21563
H         -3.45881       -1.67175        0.21176
H         -4.71275       -0.62685       -2.21940
H         -5.19474       -0.45893       -0.66600
H         -0.69152        0.15272       -1.32048
H         -2.27644        0.63298       -1.15666
C         -2.11445       -1.41081       -1.43602
C         -3.51453       -1.64237       -0.88200
N         -1.61293       -0.11466       -0.94218
N         -4.38171       -0.52948       -1.26537
H         -1.49549       -0.12567        0.13783
