37
2msa1ma1eda_257.log	Energy: -1013361.2614840
S         -1.62119       -1.47759       -0.43139
O         -0.33994       -1.61757       -1.20477
O         -2.61336       -0.66011       -1.15355
O         -1.36208       -1.01322        0.95359
C         -2.28823       -3.12607       -0.30293
H         -1.57442       -3.74284        0.24338
H         -3.23542       -3.06536        0.23339
H         -2.44061       -3.50983       -1.31181
S          2.59326       -0.50159        0.33270
O          1.77214        0.08167        1.39013
O          2.96216        0.39387       -0.76527
O          1.95199       -1.82155       -0.21311
H          0.98464       -1.71151       -0.58290
C          4.07338       -1.18141        1.04072
H          4.63093       -0.34706        1.46698
H          3.78886       -1.89397        1.81409
H          4.64328       -1.66431        0.24752
N         -3.27429        1.83050        0.47884
H         -3.88369        2.56965        0.14483
C         -3.75780        1.29646        1.75869
H         -4.78819        0.92202        1.71344
H         -3.10709        0.46899        2.05320
H         -3.70473        2.07294        2.52712
H         -3.28483        1.08076       -0.21735
H          0.51371        0.86374       -1.20555
H         -1.08387        1.52727       -1.54038
H          0.81419        3.00464       -2.33140
H         -0.22355        3.83432       -1.16070
H          2.32002        2.53159       -0.47033
H          1.98852        4.14771       -0.40517
H         -0.51614        0.64801        0.82113
H          0.23250        2.14711        0.97822
C         -0.16547        1.68305       -0.97269
C          0.49980        3.01870       -1.27882
N         -0.49574        1.62464        0.47662
N          1.58550        3.22252       -0.32460
H         -1.47294        1.99019        0.61946
