35
2msa1a1tma_47.log	Energy: -978622.0298884
S         -2.83813       -0.90845       -0.15164
O         -3.79623       -1.89243       -0.61339
O         -3.21966        0.49519       -0.05024
O         -1.55972       -1.02910       -1.09404
H         -1.02616       -0.17510       -1.08577
C         -2.19526       -1.42563        1.42698
H         -3.02366       -1.39883        2.13614
H         -1.81534       -2.44212        1.32163
H         -1.40845       -0.72523        1.71519
S          0.22717        1.80095        0.20027
O          0.12818        0.89431        1.35708
O         -0.03768        1.07369       -1.10092
O          1.52307        2.52510        0.10872
H          2.59139        1.59757       -1.03545
C         -1.06268        3.01328        0.35073
H         -2.01237        2.47478        0.33971
H         -0.91386        3.53907        1.29409
H         -0.98948        3.69881       -0.49343
N          2.63403        0.75277       -1.64088
H          2.81012       -0.12112       -0.98298
H          3.30971        0.84266       -2.39275
H          1.66607        0.68935       -1.98768
N          2.91070       -1.30095        0.08978
C          1.59805       -1.95820        0.14194
H          0.84300       -1.22889        0.43959
H          1.33937       -2.35283       -0.84416
H          1.59946       -2.78741        0.86563
C          3.95881       -2.24640       -0.29077
H          3.71990       -2.69508       -1.25918
H          4.91789       -1.72604       -0.37095
H          4.06392       -3.05418        0.44960
C          3.21710       -0.65685        1.37353
H          4.16934       -0.12377        1.29639
H          2.42585        0.05477        1.62090
H          3.29586       -1.40027        2.18101
