37
2msa1ma1eda_304.log	Energy: -1013361.3360823
S         -3.55261        0.13429        0.25705
O         -2.65725        1.27690        0.55781
O         -3.43309       -0.99262        1.20032
O         -3.37766       -0.34574       -1.16569
H         -2.34974       -1.49767       -1.15087
C         -5.21605        0.76329        0.34016
H         -5.37803        1.13812        1.35096
H         -5.31347        1.56670       -0.38988
H         -5.90241       -0.05266        0.11461
S          3.09505       -0.80185        0.16066
O          3.34566        0.15539       -0.94461
O          2.52471       -2.08844       -0.29244
O          2.28956       -0.17999        1.26223
H          0.81883        0.62322        0.79583
C          4.68384       -1.16532        0.88908
H          5.31611       -1.60197        0.11563
H          5.11406       -0.23431        1.25851
H          4.53145       -1.87113        1.70574
N          1.95409        2.73124       -0.94933
H          2.54635        1.95754       -1.26249
C          2.56558        3.33010        0.24367
H          3.55025        3.77336        0.05318
H          1.90748        4.10392        0.64934
H          2.68713        2.54703        0.99758
H          1.87912        3.40898       -1.70006
H         -0.95234        0.25276       -1.52450
H          0.77299       -0.22117       -1.47146
H          0.37788       -1.99076        0.02798
H         -1.00925       -1.16163        0.79740
H         -1.09863       -2.49529       -1.82400
H         -1.84987       -2.94468       -0.41878
H          0.61929        1.79671       -0.36490
H         -0.78230        1.25835        0.53176
C         -0.13666       -0.08635       -0.88127
C         -0.50928       -1.37870       -0.14834
N          0.11815        0.98176        0.10801
N         -1.50423       -2.14966       -0.95521
