42
2msa2eda_524.log	Energy: -1072746.2344711
S          2.88694       -1.13607       -0.47541
O          3.82817       -1.79201       -1.35991
O          2.83160       -1.51035        0.93268
O          1.44266       -1.33452       -1.12159
H          0.75788       -0.89595       -0.52764
C          3.10530        0.63055       -0.56895
H          2.30579        1.13254       -0.01162
H          4.07795        0.85162       -0.12687
H          3.09059        0.91542       -1.62149
S         -0.83296       -0.02612        1.63992
O         -1.59705        1.21223        1.86314
O         -0.31836       -0.08973        0.23240
O         -1.59020       -1.27824        1.94632
H         -1.78567       -2.04253        0.51642
C          0.58446        0.00452        2.70996
H          1.14243        0.91195        2.47151
H          0.22546        0.02042        3.73941
H          1.19575       -0.87502        2.50540
H          0.14588        4.50354       -0.67148
H          1.62746        3.65579       -1.13519
H         -0.15766        2.90751       -2.55431
H          0.30125        1.56589       -1.49946
H         -1.62886        2.01579       -0.16529
H         -2.06447        3.25842       -1.14360
H          1.31787        3.70201        1.26559
H         -0.02398        2.78154        1.13948
C          0.64663        3.51970       -0.66203
C         -0.17210        2.55135       -1.51784
N          0.86345        3.00085        0.68984
N         -1.56796        2.37278       -1.11787
H         -3.83016       -2.72821       -1.52203
H         -4.05477       -2.36840        0.21235
H         -4.66170       -0.40252       -1.29912
H         -3.38061       -0.02415       -0.14596
H         -3.05735       -0.35674       -3.00607
H         -2.26301        0.64098       -1.93956
H         -1.77938       -3.33797       -0.58939
H         -1.56097       -1.75755       -1.14080
C         -3.49752       -2.10489       -0.68804
C         -3.61850       -0.61547       -1.03623
N         -2.05240       -2.36775       -0.45685
N         -2.65274       -0.29915       -2.07912
