32
2msa1a1dma_05.log	Energy: -953980.0989478
S          2.83586       -0.40735       -0.09741
O          2.95636        0.72968       -1.02035
O          2.69206       -1.73801       -0.72118
O          1.71147       -0.16948        0.89912
C          4.32241       -0.45309        0.88796
H          5.15871       -0.64013        0.21369
H          4.43703        0.51137        1.38266
H          4.23122       -1.25593        1.61950
S         -2.83596       -0.40725        0.09735
O         -2.95603        0.73003        1.02005
O         -2.69277       -1.73785        0.72137
O         -1.71135       -0.17006       -0.89907
C         -4.32248       -0.45250       -0.88811
H         -5.15893       -0.63867       -0.21379
H         -4.43646        0.51182       -1.38323
H         -4.23177       -1.25572       -1.61929
N         -0.00022       -2.11652        0.00021
H          0.54161       -1.48595        0.62799
H         -0.54217       -1.48547       -0.62717
H          0.69844       -2.66098       -0.50783
H         -0.69878       -2.66143        0.50788
N          0.00009        1.81265        0.00004
C         -0.49211        2.61321        1.14210
C          0.49278        2.61276       -1.14210
H          0.75288        1.16848        0.33381
H         -1.29201        3.27075        0.80095
H         -0.89533        1.93578        1.89302
H          0.33612        3.19814        1.54526
H         -0.33498        3.19844       -1.54513
H          1.29334        3.26956       -0.80109
H          0.89530        1.93500       -1.89310
H         -0.75304        1.16895       -0.33355
