37
2msa1ma1eda_12.log	Energy: -1013376.2242088
S          2.85645       -0.49982       -0.13028
O          2.33355       -1.75335       -0.74102
O          2.12427       -0.13318        1.10668
O          2.91726        0.63549       -1.09394
C          4.54387       -0.85631        0.32125
H          5.08336       -1.13626       -0.58362
H          4.97623        0.04036        0.76555
H          4.53818       -1.67758        1.03792
S         -2.23401        1.18379       -0.19554
O         -2.75381        0.14925       -1.10874
O         -1.66564        2.37906       -0.86902
O         -1.25770        0.61302        0.79293
C         -3.61947        1.76566        0.76730
H         -4.34288        2.20386        0.07918
H         -4.05515        0.91375        1.28996
H         -3.26200        2.51163        1.47707
N          0.97480        2.25574       -0.02474
H          0.08556        2.45973       -0.52299
H          0.73137        1.53942        0.67279
C          1.56697        3.44633        0.61188
H          2.46047        3.14335        1.15737
H          1.83237        4.17139       -0.15693
H          0.84318        3.88599        1.29806
H          1.66530        1.77649       -0.64331
H         -0.51351       -3.81572        0.26565
H         -0.32676       -2.68276        1.63078
H         -2.68720       -3.61955        1.37771
H         -2.61091       -1.85562        1.32665
H         -3.71104       -3.43903       -0.62579
H         -3.22606       -1.87292       -0.85190
H          0.66995       -1.85892       -0.47099
H         -0.89326       -1.88694       -1.13491
C         -0.82076       -2.84943        0.67149
C         -2.34385       -2.76949        0.78080
N         -0.35669       -1.80177       -0.26593
N         -2.93142       -2.80044       -0.55506
H         -0.56713       -0.86179        0.13354
