34
2msa1a1eda_75.log	Energy: -988706.1894472
S          1.75685       -1.10239       -0.42273
O          3.00250       -0.32510       -0.53178
O          0.66007       -0.48922       -1.25533
O          1.29597       -1.32837        0.96705
C          2.06218       -2.70550       -1.14389
H          2.37363       -2.55762       -2.17794
H          2.85130       -3.19064       -0.56888
H          1.13938       -3.28499       -1.09783
S         -2.42291       -0.72772        0.23801
O         -3.85821       -0.80678        0.06982
O         -1.83154        0.57218        0.59203
O         -1.74656       -1.24751       -1.08473
H         -0.76458       -0.95236       -1.15078
C         -1.89085       -1.90306        1.46113
H         -2.32467       -1.59492        2.41332
H         -2.26800       -2.88324        1.16868
H         -0.79807       -1.88260        1.49605
N          2.93296        1.02202        2.10830
H          2.59037        0.15896        2.52465
H          3.56958        1.46975        2.75809
H          3.44709        0.72545        1.27774
H          1.46839        3.51449       -0.26663
H          1.64254        1.92263       -1.06390
H         -0.12822        3.48161       -2.10870
H         -0.69498        1.87020       -1.66694
H         -1.75770        4.24825       -0.75066
H         -2.05171        2.75414       -0.12620
H          1.50666        1.69014        1.35759
H         -0.00491        2.52230        1.28319
C          0.96662        2.57393       -0.50868
C         -0.33961        2.82316       -1.26137
N          0.64399        1.91115        0.77891
N         -1.32436        3.42379       -0.35783
H          0.12489        1.03864        0.60933
