38
2msa1ma1tma_37.log	Energy: -1003282.7726655
S         -1.77602        1.47137       -0.07410
O         -0.67834        2.04727        0.78380
O         -2.87935        0.92587        0.72023
O         -1.20913        0.53224       -1.07700
C         -2.41459        2.85419       -1.00244
H         -2.79815        3.58606       -0.29129
H         -1.60063        3.27669       -1.59198
H         -3.21369        2.49063       -1.64887
S          2.33809        0.54658        0.07578
O          2.42371       -0.07982       -1.24415
O          1.75743       -0.27433        1.13971
O          1.63841        1.93064       -0.00125
H          0.61829        1.93990        0.33410
C          3.97928        1.03698        0.55519
H          4.58795        0.13354        0.60136
H          4.36435        1.72398       -0.19819
H          3.92065        1.51845        1.53084
N         -1.04650       -1.30673        1.89326
H         -0.23160       -0.69689        1.86987
C         -1.05742       -2.07489        3.13507
H         -1.09247       -1.46287        4.04790
H         -1.92303       -2.74554        3.14795
H         -0.15816       -2.69819        3.18878
H         -1.85815       -0.69466        1.83794
N         -0.39615       -2.02757       -1.12872
C          0.62482       -2.85775       -0.44416
H          1.59520       -2.37916       -0.56491
H          0.36000       -2.90083        0.61126
H          0.62182       -3.85169       -0.89809
C         -1.75621       -2.60656       -0.99263
H         -1.95282       -2.72251        0.07301
H         -2.47013       -1.90207       -1.41903
H         -1.78774       -3.56318       -1.51911
C         -0.03856       -1.76410       -2.54628
H         -0.80362       -1.11848       -2.97532
H          0.92259       -1.25032       -2.56130
H          0.01317       -2.71691       -3.07788
H         -0.45431       -1.09498       -0.67504
