38
2msa2dma_80.log	Energy: -1003285.5929001
S         -3.13013        0.41751        0.34591
O         -4.22896        1.14672        0.94509
O         -3.27307       -1.00048        0.03792
O         -1.87074        0.61563        1.29841
H         -1.16315       -0.07993        1.11175
C         -2.62046        1.25487       -1.14189
H         -3.44002        1.16730       -1.85652
H         -2.43796        2.30158       -0.89745
H         -1.72211        0.75922       -1.51762
S          0.36207       -1.58970       -0.50564
O          0.06136       -0.62199       -1.58415
O          0.08090       -1.01361        0.85261
O          1.75705       -2.11000       -0.54771
H          2.69130       -0.98745        0.35926
C         -0.72994       -2.97549       -0.71051
H         -1.75009       -2.59971       -0.61117
H         -0.55369       -3.39963       -1.69912
H         -0.50172       -3.70054        0.07068
N          1.66328        1.73486       -0.68161
C          2.45787        2.49716       -1.64085
C          0.80215        2.58139        0.14420
H          1.07724        1.05940       -1.18089
H          3.15795        3.14738       -1.10513
H          3.03220        1.81225       -2.27023
H          1.83876        3.13002       -2.29289
H          1.41743        3.21318        0.79394
H          0.16258        3.24003       -0.46158
H          0.15913        1.95461        0.76534
N          3.09908       -0.11302        0.76675
C          4.53153       -0.02845        0.43555
C          2.79383       -0.04496        2.20936
H          2.56157        0.66948        0.24418
H          5.07140       -0.84725        0.91501
H          4.64781       -0.10444       -0.64617
H          4.93218        0.92617        0.78281
H          3.31735       -0.84750        2.73295
H          3.11450        0.92204        2.60249
H          1.71766       -0.17148        2.32757
