29
2msa1a1ma_41.log	Energy: -929307.2056421
S         -2.12803       -0.52941        0.08152
O         -2.09328        0.73537        0.83603
O         -1.72796       -1.72680        0.80729
O         -1.32081       -0.37717       -1.24572
H         -0.28207       -0.23139       -1.05916
C         -3.76517       -0.73510       -0.57124
H         -4.01959        0.14878       -1.15517
H         -3.77512       -1.63346       -1.18785
H         -4.43542       -0.84390        0.28186
S          2.06806       -0.84141       -0.11400
O          3.38466       -0.73883       -0.72768
O          1.05352        0.06539       -0.80436
O          2.02270       -0.59043        1.35221
H          1.03980        0.66710        1.82932
C          1.44615       -2.49501       -0.35401
H          1.40770       -2.68995       -1.42625
H          2.14323       -3.17721        0.13340
H          0.45544       -2.56501        0.09906
N          0.41241        1.50538        1.93944
H          0.47591        1.88492        2.87873
H         -0.55579        1.21888        1.72378
H          0.71445        2.21471        1.19642
N          1.08358        2.96700       -0.30622
H          1.77011        3.70892       -0.39345
C         -0.17098        3.32961       -0.97754
H         -0.04995        3.52129       -2.05008
H         -0.88695        2.51292       -0.85286
H         -0.59407        4.22217       -0.50879
H          1.46918        2.13048       -0.74724
