37
2msa1ma1eda_110.log	Energy: -1013361.3524854
S         -2.53638       -0.38628       -0.44282
O         -1.97672       -1.73545       -0.59398
O         -2.22233        0.57358       -1.49460
O         -2.17227        0.19763        0.95972
H         -1.21177        0.64919        0.98742
C         -4.29609       -0.54473       -0.26942
H         -4.50256       -1.20322        0.57382
H         -4.71707        0.44709       -0.10813
H         -4.66817       -0.97851       -1.19802
S          0.90253        2.01803        0.21826
O          1.95967        2.73775        0.91911
O          0.07361        1.17668        1.17284
O          1.37738        1.18028       -0.91772
H          0.89285       -0.49620       -1.00305
C         -0.24441        3.19216       -0.47588
H         -0.63980        3.79888        0.33928
H          0.30747        3.81239       -1.18269
H         -1.03632        2.63576       -0.98119
N          1.12029       -1.48551        1.96055
H          2.04428       -1.77996        2.25944
C          0.05280       -2.13260        2.72693
H          0.11448       -1.94663        3.80618
H         -0.90944       -1.76172        2.36549
H          0.08299       -3.21264        2.55860
H          1.06444       -0.47240        2.06425
H          2.13766       -3.16937       -0.93232
H          1.63486       -2.47221       -2.49015
H          4.03071       -2.02282       -1.91203
H          3.08780       -0.55888       -2.21431
H          4.60029       -0.80708       -0.09738
H          3.17793       -0.01868       -0.00547
H         -0.06653       -1.86723       -0.97049
H          1.00501       -1.56102        0.29653
C          1.96170       -2.23620       -1.47385
C          3.23306       -1.39024       -1.51069
N          0.87545       -1.51166       -0.77512
N          3.59788       -0.93097       -0.17234
