37
2msa1ma1eda_572.log	Energy: -1013344.6976248
S          2.81701       -0.05566       -0.37643
O          4.19142       -0.47664       -0.18382
O          2.53985        1.32630       -0.76779
O          2.00624       -0.37092        0.94325
H          1.29045        0.37747        1.18370
C          2.05274       -1.14267       -1.56005
H          2.54269       -0.96871       -2.51894
H          2.21885       -2.16869       -1.23045
H          0.98697       -0.91423       -1.61096
S         -2.49336       -0.34725       -0.44227
O         -1.11447       -0.47984       -0.91558
O         -3.50887        0.00254       -1.42559
O         -2.51870        0.71255        0.74147
H         -2.21593        1.65410        0.35373
C         -2.95913       -1.80877        0.44243
H         -3.07817       -2.59265       -0.30757
H         -2.14622       -2.06068        1.13421
H         -3.90659       -1.61672        0.94529
N         -0.00009       -2.74141        1.43693
H          0.64881       -1.97466        1.27727
C         -0.02743       -3.61182        0.26260
H          0.93610       -4.08549        0.02289
H         -0.76447       -4.40824        0.40911
H         -0.34151       -3.02216       -0.60390
H          0.34006       -3.24957        2.24641
H          0.03596        3.50893        1.74666
H          1.54571        2.91384        1.02790
H          0.31943        3.66435       -0.80007
H          0.15083        1.90779       -0.84758
H         -1.89564        3.76008        0.19783
H         -1.96370        2.92150       -1.20116
H          0.50282        1.43791        2.71983
H         -0.64399        1.03735        1.62251
C          0.47351        2.72352        1.11339
C         -0.12001        2.80367       -0.28526
N          0.30790        1.39039        1.72346
N         -1.59674        2.89812       -0.25206
