34
2msa1a1eda_250.log	Energy: -988693.8547446
S          2.20208        1.54835        0.30886
O          3.23632        2.39506        0.89721
O          0.91983        1.47660        1.06087
O          2.67035        0.14675       -0.00337
H          1.58714       -0.81228        0.53605
C          1.79171        2.24753       -1.28844
H          1.46065        3.27523       -1.13050
H          2.68900        2.23409       -1.90817
H          0.99679        1.64882       -1.73692
S         -2.05139        0.41033       -0.41059
O         -1.18496        0.24758       -1.56335
O         -1.87946       -0.52570        0.71572
O         -3.55100        0.29988       -0.89499
H         -4.13849       -0.12170       -0.16069
C         -1.92921        2.06857        0.19958
H         -2.66184        2.19268        0.99769
H         -0.90491        2.17810        0.57556
H         -2.13615        2.74399       -0.63090
N         -4.89320       -0.85321        1.05701
H         -5.42167       -1.67154        0.77207
H         -5.49391       -0.27895        1.63951
H         -4.10238       -1.16345        1.61756
H         -0.16029       -3.02154       -0.43931
H          0.46820       -1.63426       -1.35121
H          1.91358       -3.65653       -1.72033
H          2.79260       -2.35837       -0.90044
H          1.85009       -4.83748        0.32085
H          3.27855       -4.06074        0.51164
H         -0.04577       -1.08757        0.96054
H          1.14829       -2.19015        1.44298
C          0.68707       -2.33787       -0.54655
C          1.98992       -3.09233       -0.78217
N          0.83054       -1.55964        0.70360
N          2.28321       -3.92342        0.38805
