37
2msa1ma1eda_254.log	Energy: -1013362.1853850
S          2.62609        0.03577       -0.15428
O          3.99051       -0.47000       -0.21674
O          2.27098        0.77913        1.08769
O          1.58896       -1.05804       -0.39314
H          0.66558       -1.27370        1.19712
C          2.39057        1.18774       -1.49709
H          3.08396        2.01472       -1.33989
H          2.63081        0.67453       -2.42956
H          1.35549        1.54072       -1.49186
S         -1.64243        1.82792       -0.10330
O         -2.94366        2.48168       -0.09536
O         -0.95205        1.73833       -1.41109
O         -1.69957        0.42187        0.50528
H         -1.31009       -0.48594       -1.03257
C         -0.55586        2.74208        0.98027
H         -0.45787        3.74551        0.56416
H         -1.01797        2.79311        1.96722
H          0.41930        2.24895        1.01522
N          0.22347       -0.73918        1.96764
H          0.96617       -0.04765        2.16405
C         -0.20640       -1.55397        3.11548
H         -0.64943       -0.90672        3.87210
H         -0.95191       -2.27525        2.77799
H          0.65115       -2.07876        3.53630
H         -0.56619       -0.21556        1.50506
H         -0.52900       -2.94550        0.12826
H         -1.59895       -4.11220       -0.63994
H         -0.36517       -2.96888       -2.37174
H         -2.07665       -2.45615       -2.45607
H          0.24410       -0.96033       -1.31501
H         -0.76584       -0.47964       -2.57736
H         -3.01791       -3.04641        0.84390
H         -2.55138       -1.51601        0.41429
C         -1.44012       -3.04092       -0.48771
C         -1.16435       -2.43069       -1.85725
N         -2.64529       -2.47755        0.09560
N         -0.73265       -1.01713       -1.71262
