40
2msa1dma1eda_148.log	Energy: -1038020.6029384
S         -1.40451       -1.89403        0.21933
O         -1.62754       -1.07084       -1.00178
O         -2.43768       -1.78048        1.24413
O         -0.02683       -1.61273        0.78477
C         -1.35287       -3.58719       -0.33727
H         -0.56769       -3.68210       -1.08792
H         -1.14660       -4.21895        0.52685
H         -2.32646       -3.82565       -0.76598
S          2.64933       -0.03102       -0.53595
O          2.72919        0.43865        0.84269
O          1.99975        0.87492       -1.49357
O          2.00504       -1.45017       -0.60224
H          1.11572       -1.52523       -0.02560
C          4.27554       -0.39424       -1.14801
H          4.81761        0.55087       -1.18765
H          4.75303       -1.08912       -0.45802
H          4.17894       -0.82795       -2.14291
N         -0.10358        1.21191        2.19255
C         -1.35865        1.04121        2.92604
C          0.78449        2.20570        2.78925
H          0.37327        0.31307        2.13477
H         -1.94154        1.96682        2.86496
H         -1.93504        0.22685        2.48060
H         -1.19102        0.81479        3.98900
H          0.31624        3.19410        2.72489
H          0.99413        1.99850        3.84898
H          1.72713        2.21966        2.23931
H         -2.23438        2.75810       -0.10728
H         -0.83711        3.51491       -0.90988
H         -2.58499        3.33791       -2.54432
H         -1.38189        2.11332       -2.96345
H         -3.78097        1.36753       -2.93252
H         -2.89176        0.47949       -1.88210
H         -0.39409        1.46466        0.57869
H         -1.07742        0.56711       -0.68019
C         -1.47135        2.62550       -0.87815
C         -2.15086        2.38664       -2.22058
N         -0.61953        1.47941       -0.48304
N         -3.22995        1.41814       -2.08426
H          0.27596        1.45516       -0.99085
