40
2msa1dma1eda_488.log	Energy: -1038010.1408746
S          1.10498       -0.44430        1.01463
O          0.91637       -1.19177       -0.24800
O          0.90907        1.01560        0.89489
O          2.46213       -0.76755        1.60724
H          3.39450       -1.18022        0.55155
C         -0.08057       -1.05106        2.19201
H         -1.08468       -0.86894        1.79303
H          0.09306       -2.11944        2.32322
H          0.07527       -0.52131        3.13257
S         -3.25840       -0.80228       -0.54159
O         -4.64211       -1.13901       -0.87609
O         -2.99456       -0.52667        0.89266
O         -2.71255        0.33740       -1.38265
H         -2.34957        1.49021       -0.57618
C         -2.24186       -2.20015       -0.99216
H         -2.56871       -3.05215       -0.39401
H         -2.40070       -2.39985       -2.05248
H         -1.19617       -1.95416       -0.79485
N         -2.14719        2.47092       -0.10775
C         -0.96122        3.06099       -0.76602
C         -2.01839        2.34680        1.36406
H         -2.97578        3.02109       -0.32918
H         -0.10834        2.41811       -0.54157
H         -1.13894        3.09201       -1.84175
H         -0.78366        4.06824       -0.38140
H         -1.07684        1.83695        1.56934
H         -2.01400        3.34225        1.81528
H         -2.84687        1.74116        1.73017
H          4.32858       -0.95189       -2.31896
H          2.65759       -0.80014       -1.67660
H          3.74603        1.45240       -2.04620
H          3.28007        1.16651       -0.36890
H          5.99836        1.19601       -1.42793
H          5.42816        1.75751        0.00018
H          4.08739       -2.40534       -0.44743
H          5.02765       -1.08932        0.01100
C          3.71489       -0.61562       -1.47773
C          3.97290        0.85374       -1.15602
N          4.09321       -1.40370       -0.27392
N          5.34843        1.00613       -0.67358
