29
2msa1a1ma_15.log	Energy: -929311.6660170
S         -2.12511       -0.76763        0.03748
O         -2.95231        0.42603       -0.19380
O         -1.77375       -1.04796        1.43635
O         -0.88018       -0.68677       -0.84478
C         -3.01817       -2.18071       -0.58161
H         -3.94237       -2.26408       -0.00913
H         -3.23129       -2.01559       -1.63759
H         -2.39883       -3.06680       -0.44187
S          2.41586       -0.26264       -0.06281
O          2.43810        0.11103        1.34750
O          2.16593        0.81774       -1.02354
O          1.43466       -1.45350       -0.31948
H          0.44597       -1.15667       -0.47939
C          3.95544       -1.04972       -0.46516
H          4.74000       -0.30984       -0.30423
H          4.08589       -1.90202        0.20111
H          3.92191       -1.36310       -1.50793
N         -0.19752        1.46076        2.10918
H         -0.41108        2.09474        2.87152
H          0.75159        1.10932        2.23372
H         -0.82069        0.65212        2.17946
N         -0.35423        2.07178       -0.58150
H         -0.30380        1.94692        0.48754
H          0.59816        2.23014       -0.91576
C         -1.32912        3.10898       -0.96649
H         -1.33426        3.23146       -2.04995
H         -2.31166        2.77710       -0.63101
H         -1.06230        4.05283       -0.48972
H         -0.62546        1.13627       -0.93380
