40
2msa1dma1eda_95.log	Energy: -1038029.6981234
S         -3.23646       -0.21595       -0.09197
O         -3.23815       -1.55290       -0.69327
O         -3.13470        0.90861       -1.07549
O         -2.18779       -0.05238        0.96813
C         -4.80863       -0.00172        0.72391
H         -5.58970       -0.08179       -0.03243
H         -4.91372       -0.79059        1.46892
H         -4.82961        0.98008        1.19695
S          3.07473       -0.43798       -0.20636
O          2.90436        0.66207       -1.17315
O          3.00921       -1.79727       -0.76867
O          2.11746       -0.29393        0.95804
C          4.69780       -0.24565        0.51700
H          5.43315       -0.34565       -0.28193
H          4.76151        0.74299        0.97262
H          4.83615       -1.02583        1.26569
N         -0.08035       -1.77087        0.34189
C         -0.06031       -3.06717        1.04591
C         -0.12663       -1.90610       -1.13435
H         -0.89637       -1.20539        0.65376
H          0.82685       -3.61962        0.73313
H         -0.01970       -2.88451        2.11997
H         -0.96539       -3.62319        0.79648
H          0.77656       -2.41914       -1.46363
H         -1.04136       -2.42957       -1.41072
H         -0.14512       -0.90729       -1.57229
H          0.77696       -1.22276        0.60910
H          0.45536        1.37148       -1.01812
H          0.15942        2.93116       -1.80816
H          2.20983        2.88592       -0.32499
H          1.03425        4.11616        0.20119
H          1.45575        1.48217        1.41889
H          1.46545        2.95900        2.15472
H         -1.88273        1.86352       -0.66374
H         -1.00586        2.11251        0.75908
C          0.20244        2.41922       -0.84605
C          1.21660        3.03753        0.11142
N         -1.13940        2.46283       -0.20386
N          1.03141        2.41441        1.41973
H         -1.48654        3.41831       -0.13736
