42
2msa2eda_578.log	Energy: -1072741.7512297
S          0.65594        2.13193       -0.26035
O          0.63689        1.37049        0.98633
O         -0.30333        3.22957       -0.37824
O          0.52218        1.17991       -1.49663
H         -0.03185        0.33836       -1.25479
C          2.29073        2.77158       -0.52669
H          2.48379        3.50266        0.25888
H          2.98998        1.93676       -0.46383
H          2.32292        3.24294       -1.50878
S         -0.78617       -2.04982       -0.28926
O         -1.00841       -0.67785       -0.87568
O          0.05032       -2.92060       -1.11180
O         -2.14218       -2.59818        0.04383
H         -3.17729       -1.44817       -0.23765
C          0.04328       -1.80914        1.26717
H          1.01255       -1.35198        1.06618
H         -0.56080       -1.14971        1.89022
H          0.15846       -2.78856        1.73262
H         -5.01582        0.43576        1.11828
H         -3.85118       -0.71699        1.81354
H         -3.10087        1.70151        2.03669
H         -1.96143        0.72998        1.09905
H         -3.82077        2.68328        0.00492
H         -2.23303        2.45113       -0.32585
H         -4.75830       -0.98764       -0.64945
H         -3.50563        0.09054       -0.93317
C         -4.00412        0.02991        1.03241
C         -2.96814        1.15612        1.09414
N         -3.87371       -0.63597       -0.29327
N         -3.10560        1.97251       -0.10653
H          4.71939        0.25891        0.09871
H          5.24807       -0.99337        1.22702
H          4.52387       -2.03789       -0.83791
H          3.39913       -2.46260        0.46325
H          2.87198       -0.52384       -1.66492
H          1.97724       -1.82217       -1.22121
H          3.80109        0.52903        2.38194
H          2.56729        0.22355        1.34040
C          4.36255       -0.57430        0.73599
C          3.74726       -1.63772       -0.16712
N          3.40915       -0.16581        1.75756
N          2.59183       -1.09082       -0.87180
