40
2msa1dma1eda_154.log	Energy: -1038020.6246565
S         -0.39485       -2.16918       -0.31366
O         -1.29370       -3.01019       -1.09406
O         -1.00804       -1.54099        0.88835
O          0.26543       -1.10044       -1.17075
C          0.95553       -3.16427        0.29070
H          1.62781       -2.51945        0.86001
H          0.53135       -3.93877        0.93028
H          1.45920       -3.60907       -0.56804
S          2.65187        0.67966        0.39171
O          2.47735       -0.23346        1.51370
O          1.80700        1.88284        0.39316
O          2.50929       -0.07926       -0.96862
H          1.57292       -0.55500       -1.03763
C          4.34731        1.19198        0.28069
H          4.56619        1.75597        1.18779
H          4.97039        0.30025        0.21946
H          4.46330        1.81728       -0.60391
N         -1.43854        1.20980       -1.79360
C         -0.76013        2.31428       -2.46424
C         -2.80063        0.98616       -2.26477
H         -0.89546        0.35310       -1.91486
H         -1.29291        3.24993       -2.26266
H          0.25529        2.40622       -2.06906
H         -0.70565        2.18056       -3.55469
H         -3.42796        1.84616       -2.00428
H         -2.85567        0.84045       -3.35358
H         -3.20983        0.09644       -1.77871
H         -1.62241        1.80578        2.82594
H         -1.99062        2.92237        1.48547
H         -4.03540        1.84202        2.14052
H         -3.57776        1.21699        0.55334
H         -4.27071       -0.45819        2.32465
H         -2.78678       -0.79307        1.71155
H          0.01090        1.61450        1.01673
H         -0.85277        0.19015        1.11775
C         -1.94424        1.87151        1.78438
C         -3.30731        1.20893        1.62358
N         -0.93041        1.21109        0.93052
N         -3.32440       -0.10792        2.23990
H         -1.19426        1.27745       -0.10884
