38
2msa2dma_174.log	Energy: -1003278.3707368
S          2.30156        0.46213       -0.31001
O          2.39604       -0.29863        0.94940
O          1.32922        1.54689       -0.32807
O          2.07886       -0.51432       -1.50668
H          1.15777       -1.02276       -1.39418
C          3.91529        1.08224       -0.70314
H          4.18211        1.79196        0.08024
H          4.61205        0.24509       -0.72579
H          3.85987        1.57814       -1.67179
S         -1.44979       -1.14283       -1.21512
O         -2.38618       -2.07733       -1.81849
O         -0.04399       -1.70188       -1.10837
O         -1.85524       -0.62221        0.12985
H         -0.75092       -0.98051        1.27403
C         -1.31851        0.29309       -2.26454
H         -0.97591       -0.03654       -3.24614
H         -2.31197        0.73688       -2.34102
H         -0.61304        0.99510       -1.81515
N         -2.35786        2.43750        0.63748
C         -1.59271        2.45761        1.86864
C         -1.81472        3.33884       -0.36424
H         -2.37577        1.48459        0.28512
H         -1.66214        3.44863        2.33265
H         -2.02026        1.73578        2.57238
H         -0.51941        2.23077        1.72354
H         -1.92776        4.37451       -0.02273
H         -0.74530        3.16899       -0.57916
H         -2.37957        3.23849       -1.29585
N         -0.01731       -1.33080        1.95037
C         -0.04724       -2.81024        1.92100
C         -0.23225       -0.73744        3.28486
H          0.88959       -0.99890        1.57340
H         -1.02468       -3.15157        2.26495
H          0.11144       -3.12617        0.88993
H          0.73832       -3.20150        2.56952
H         -1.23324       -0.99450        3.63428
H          0.51615       -1.12182        3.97986
H         -0.13829        0.34488        3.20223
