40
2msa1dma1eda_550.log	Energy: -1038004.4402397
S         -3.24824       -0.40002        0.24884
O         -4.36006       -1.24650        0.63735
O         -2.59204       -0.61859       -1.03758
O         -2.15103       -0.49116        1.40043
H         -1.22188       -0.53311        1.02689
C         -3.75303        1.29875        0.34878
H         -4.52811        1.43988       -0.40640
H         -4.15985        1.46811        1.34617
H         -2.88184        1.93570        0.14869
S          0.98438       -1.45130       -0.44847
O          1.31676       -0.64298       -1.63138
O          0.33550       -0.64821        0.63939
O          2.18244       -2.15535        0.12758
H          2.81569       -1.12702        1.13644
C         -0.15584       -2.71946       -0.93976
H         -1.04878       -2.22531       -1.32721
H          0.33300       -3.32287       -1.70480
H         -0.39490       -3.32100       -0.06229
N         -0.99864        3.00652       -0.32059
C         -0.51840        2.39309       -1.55195
C         -0.07153        2.84625        0.78916
H         -1.18258        3.99203       -0.47508
H         -0.38871        1.31859       -1.39887
H         -1.25839        2.52904       -2.34497
H          0.44540        2.80767       -1.90005
H          0.08358        1.77750        0.96544
H          0.91911        3.29905        0.60605
H         -0.49712        3.29040        1.69404
H          4.87516        1.01080        1.58847
H          5.17382       -0.65569        1.02293
H          5.04158        1.07575       -0.86786
H          3.88989       -0.25742       -1.02509
H          3.23802        2.48469       -0.62950
H          2.25783        1.19840       -1.00456
H          3.25215       -0.39460        2.62994
H          2.50106        0.48977        1.41412
C          4.47258        0.18071        1.00205
C          4.14509        0.62460       -0.43045
N          3.19456       -0.24800        1.62572
N          3.00291        1.52996       -0.39535
