32
2msa1a1dma_149.log	Energy: -953953.9432299
S          2.80765       -0.40889       -0.02959
O          2.24249       -1.64544        0.54159
O          2.88072        0.73823        0.86256
O          2.05659       -0.04775       -1.35444
H          1.04589        0.12912       -1.15539
C          4.41449       -0.78566       -0.67611
H          5.03502       -1.07872        0.17118
H          4.31849       -1.60139       -1.39172
H          4.80746        0.11325       -1.15026
S         -0.98417        1.36349        0.04011
O         -2.24257        1.82188       -0.53973
O         -0.33848        0.25816       -0.76633
O         -1.08245        0.91436        1.46456
H         -0.66124       -0.58092        1.58914
C          0.16488        2.72344        0.03033
H          0.28771        3.05394       -1.00166
H         -0.26665        3.51997        0.63688
H          1.11195        2.38171        0.45226
N         -0.37311       -1.61394        1.50578
H         -0.95329       -2.02207        0.77182
H         -0.51541       -2.11154        2.38025
H          0.62279       -1.66105        1.20724
N         -3.97919       -0.79585       -0.70687
C         -3.18619       -1.81312       -1.35547
C         -4.15357       -1.02885        0.70948
H         -3.56808        0.12156       -0.85588
H         -3.70221       -2.77922       -1.30498
H         -3.03529       -1.56065       -2.40743
H         -2.17643       -1.94565       -0.91056
H         -4.74436       -1.93875        0.86935
H         -3.19841       -1.14552        1.26170
H         -4.68563       -0.18943        1.16229
