32
2msa2ma_164.log	Energy: -953959.6734456
S         -2.15723       -0.97709        0.13992
O         -3.53024       -1.35624        0.38140
O         -1.24621       -2.21670        0.48122
O         -1.64710        0.20300        0.86928
H         -0.29959        0.63823        1.77898
C         -1.86846       -0.69353       -1.58909
H         -2.25916       -1.55301       -2.13349
H         -2.38057        0.23111       -1.86037
H         -0.79396       -0.57607       -1.74053
S          2.01607       -0.71771       -0.28680
O          2.42316       -0.56357        1.14285
O          1.47809        0.53629       -0.85145
O          1.10261       -1.88032       -0.48777
H         -0.29049       -2.08162        0.16341
C          3.49867       -1.13308       -1.17803
H          4.20578       -0.31205       -1.05959
H          3.90011       -2.05478       -0.75713
H          3.23460       -1.26875       -2.22675
N          0.56003        0.99570        2.25019
H          0.42738        0.93163        3.25682
C          0.85201        2.37891        1.80272
H          1.72835        2.75233        2.33212
H          1.05508        2.33231        0.73292
H         -0.01044        3.01693        1.99609
H          1.34396        0.35043        1.94763
N         -1.03437        2.41952       -1.23459
H         -1.50964        2.19499       -0.36692
C         -0.70481        3.83419       -1.32370
H         -0.03520        4.21020       -0.53038
H         -0.22012        4.03360       -2.28344
H         -1.62339        4.42770       -1.29319
H         -0.20084        1.83859       -1.27084
