38
2msa1ma1tma_103.log	Energy: -1003277.2307717
S          3.31878        0.40326       -0.51058
O          4.42119        0.98115       -1.24634
O          2.20762        0.00542       -1.55719
O          2.69855        1.21474        0.55511
H          1.14795        1.92341        0.66510
C          3.80153       -1.14160        0.21560
H          4.54615       -0.91598        0.97966
H          2.91183       -1.61282        0.64201
H          4.23109       -1.75574       -0.57589
S         -0.33872       -1.42274        0.57750
O         -0.81471       -0.74833        1.79728
O          0.83289       -2.29226        0.71904
O         -0.09951       -0.36631       -0.51059
H          1.31508       -0.23247       -1.12608
C         -1.68229       -2.40316       -0.05830
H         -1.91174       -3.16232        0.69039
H         -2.54568       -1.75426       -0.23394
H         -1.34813       -2.87007       -0.98517
N          0.11560        2.07059        0.63283
H         -0.08211        2.83006       -0.01514
C         -0.45567        2.31214        1.97997
H         -1.52660        2.48979        1.88522
H         -0.29382        1.41137        2.56978
H          0.03450        3.17504        2.43030
H         -0.22058        1.16738        0.21113
N         -4.00806        0.16454       -0.66336
C         -3.73088        0.76319        0.62971
H         -4.40176        0.34515        1.38548
H         -2.70728        0.53158        0.93978
H         -3.87139        1.86443        0.61957
C         -3.13367        0.70348       -1.69032
H         -2.08948        0.50535       -1.43280
H         -3.33960        0.21547       -2.64741
H         -3.27306        1.79529       -1.82774
C         -5.40538        0.31708       -1.02820
H         -5.59670       -0.18590       -1.98039
H         -6.04205       -0.14068       -0.26578
H         -5.70028        1.37941       -1.13428
