32
2msa1a1dma_81.log	Energy: -953959.9870560
S          3.09093        0.62517        0.04336
O          4.42132        1.18953        0.19371
O          2.70553       -0.49679        0.91002
O          2.85390        0.21177       -1.44478
H          2.36031       -0.76360       -1.51737
C          1.90219        1.93067        0.27926
H          2.02859        2.30135        1.29780
H          2.12456        2.71901       -0.44049
H          0.90024        1.52229        0.12790
S         -1.28633       -0.85756        0.56202
O         -1.04885        0.48603       -0.02172
O         -0.88938       -1.97574       -0.31118
O         -2.73027       -0.97164        1.00320
H         -3.56072       -0.01839        0.26664
C         -0.32760       -0.97509        2.05499
H          0.72691       -0.86424        1.78649
H         -0.64517       -0.17833        2.72811
H         -0.51760       -1.95233        2.49968
N          1.75849       -2.06650       -1.55404
H          2.30561       -2.64943       -0.92656
H          1.73845       -2.50919       -2.46706
H          0.80198       -2.03488       -1.18121
N         -4.12288        0.71430       -0.33557
C         -3.76691        0.48874       -1.75737
C         -3.78534        2.07190        0.15168
H         -5.11382        0.52642       -0.19285
H         -2.69392        0.65768       -1.85738
H         -3.99187       -0.54717       -2.01236
H         -4.33039        1.17151       -2.39622
H         -2.70286        2.18112        0.07498
H         -4.29910        2.82390       -0.45061
H         -4.08592        2.15553        1.19639
