35
2msa1ma1dma_130.log	Energy: -978623.7167280
S         -1.11853       -1.74473       -0.02430
O          0.14163       -1.49462       -0.81508
O         -2.30154       -1.78083       -0.88729
O         -1.21910       -0.79144        1.11490
C         -0.91461       -3.36061        0.70061
H         -0.02998       -3.34493        1.33801
H         -1.80757       -3.58215        1.28552
H         -0.79799       -4.08059       -0.10963
S          2.89233        0.35576       -0.07550
O          2.18238        1.26022        0.84837
O          2.88549        0.74256       -1.47767
O          2.39350       -1.10910        0.12359
H          1.42027       -1.27412       -0.25698
C          4.55969        0.19197        0.50956
H          5.01806        1.17863        0.43864
H          4.53205       -0.15135        1.54315
H          5.07689       -0.52122       -0.13160
N         -3.55241        0.90176        0.08576
H         -3.38476        0.11983       -0.54580
C         -4.88080        1.47047       -0.13232
H         -5.70433        0.74713       -0.04608
H         -5.06101        2.27344        0.58980
H         -4.92844        1.91408       -1.13140
H         -3.48870        0.48763        1.01137
N         -0.50533        1.73473        0.24104
C         -0.59758        1.77704       -1.23792
C         -1.08038        2.91773        0.91108
H         -0.97671        0.86797        0.58091
H         -0.01935        2.62614       -1.60486
H         -0.18743        0.84797       -1.63585
H         -1.65058        1.86881       -1.50359
H         -0.56446        3.81395        0.56246
H         -2.14250        2.95436        0.66681
H         -0.94640        2.80989        1.98783
H          0.48954        1.61867        0.50979
