35
2msa1ma1dma_111.log	Energy: -978626.9392087
S          1.28174        1.64736       -0.13461
O         -0.00435        2.23507       -0.65683
O          2.23522        1.33979       -1.21350
O          1.02435        0.51971        0.78668
C          2.00946        2.95623        0.83628
H          2.18840        3.80681        0.17836
H          1.31143        3.22130        1.63061
H          2.94781        2.58810        1.25245
S         -2.56808        0.06176        0.08192
O         -2.70264       -0.66209        1.33927
O         -1.72360       -0.57141       -0.94614
O         -2.12186        1.52479        0.31659
H         -1.16451        1.79510       -0.11760
C         -4.18910        0.28571       -0.61519
H         -4.61985       -0.70323       -0.77411
H         -4.78775        0.85509        0.09577
H         -4.08585        0.82310       -1.55742
N          3.03484       -1.47527       -0.72626
H          3.55680       -2.00346       -1.41822
C          3.81041       -1.33552        0.51232
H          4.78675       -0.85872        0.36276
H          3.22910       -0.72406        1.20663
H          3.97037       -2.31854        0.96554
H          2.86171       -0.54256       -1.11429
N          0.41224       -2.12622       -0.06348
C          0.27803       -2.35853        1.39069
C         -0.05777       -3.24794       -0.89526
H         -0.14760       -1.29276       -0.30871
H          0.84553       -3.25115        1.66252
H          0.66580       -1.48091        1.90469
H         -0.77808       -2.48225        1.63616
H          0.52343       -4.14203       -0.66043
H         -1.11580       -3.42467       -0.69840
H          0.07378       -2.98630       -1.94545
H          1.42726       -1.90097       -0.31131
