40
2msa1dma1eda_388.log	Energy: -1038015.0704949
S         -2.62792       -0.76708        0.12625
O         -1.74384       -1.77232        0.72032
O         -2.52526       -0.55336       -1.31190
O         -2.49838        0.59322        0.90378
H         -1.53882        0.97158        0.78472
C         -4.30806       -1.17362        0.53857
H         -4.52978       -2.12255        0.04933
H         -4.38851       -1.26789        1.62096
H         -4.95686       -0.38382        0.16111
S          0.41489        2.42937       -0.26726
O          0.22591        3.73434        0.35415
O         -0.13070        1.27937        0.54928
O          1.82128        2.10208       -0.64391
H          2.51358        0.75054       -0.00683
C         -0.52738        2.40252       -1.78383
H         -1.57137        2.59943       -1.53784
H         -0.13328        3.18178       -2.43684
H         -0.43169        1.41814       -2.24190
N          1.78185       -2.10235       -1.11829
C          2.37968       -3.12832       -1.96276
C          0.70619       -1.35963       -1.77710
H          1.41449       -2.50524       -0.25551
H          2.86632       -2.65781       -2.82349
H          3.13847       -3.67781       -1.39856
H          1.63928       -3.84700       -2.34406
H          1.11660       -0.80954       -2.63090
H         -0.10675       -2.00665       -2.12902
H          0.28452       -0.64225       -1.06935
H          3.76587       -1.22189        1.88105
H          3.61814        0.52764        2.16837
H          1.86534       -0.54209        3.40058
H          1.12652        0.31339        2.04488
H          1.15398       -2.51279        2.49747
H          0.13077       -1.61213        1.58688
H          4.00595        0.04542       -0.13613
H          2.63975       -0.94515       -0.29554
C          3.13804       -0.34202        1.71069
C          1.74868       -0.54559        2.30901
N          3.07394       -0.10909        0.24343
N          1.11149       -1.76521        1.81565
