37
2msa1ma1eda_17.log	Energy: -1013376.7732294
S         -2.32235       -0.83742       -0.40368
O         -1.87976       -2.15012       -0.93973
O         -2.29750        0.25697       -1.41006
O         -1.56549       -0.46892        0.82752
H          0.14458        1.22125        0.17462
C         -4.02861       -1.03325        0.07101
H         -4.59820       -1.29874       -0.81976
H         -4.08611       -1.82564        0.81727
H         -4.37747       -0.08726        0.48603
S          2.75606        0.11829       -0.23053
O          1.73678        0.23500        0.85739
O          2.52501        1.10845       -1.30960
O          2.87465       -1.28394       -0.71042
H          1.44553       -2.17689       -0.19511
C          4.33224        0.52554        0.49647
H          4.27484        1.53934        0.89286
H          4.53760       -0.19010        1.29257
H          5.08925        0.45952       -0.28513
N          0.56753       -2.37481        0.33014
H          0.38277       -1.50936        0.85603
C          0.68404       -3.54047        1.22525
H         -0.25674       -3.67166        1.75950
H          0.89661       -4.42996        0.63272
H          1.49383       -3.36936        1.93428
H         -0.24610       -2.46077       -0.31363
H         -2.56935        2.74738        0.02391
H         -1.96754        4.20940        0.79619
H         -0.66933        3.70032       -1.23832
H          0.37309        3.60686        0.19663
H         -0.88612        1.25810       -1.12721
H          0.76519        1.71402       -1.23114
H         -1.60671        1.42217        1.69306
H         -0.82127        2.71019        2.38977
C         -1.72628        3.16089        0.58741
C         -0.48331        3.15321       -0.31039
N         -1.62028        2.43014        1.83304
N         -0.10091        1.76784       -0.66705
