25
2msa1ma_12.log	Energy: -893810.6138736
S         -2.20090       -0.49665        0.13792
O         -2.39508        0.96903        0.36547
O         -2.20720       -1.32278        1.33838
O         -0.97295       -0.68686       -0.72605
C         -3.56270       -1.00507       -0.89399
H         -4.48455       -0.82441       -0.34059
H         -3.54206       -0.42214       -1.81454
H         -3.44374       -2.06816       -1.10386
S          2.17903       -0.42135       -0.03005
O          1.88860        0.32912        1.20076
O          2.16518        0.38386       -1.25330
O          1.23990       -1.65794       -0.16127
H          0.25718       -1.34189       -0.34742
C          3.74357       -1.23402        0.14572
H          4.49515       -0.45366        0.26683
H          3.70003       -1.87299        1.02727
H          3.92875       -1.81566       -0.75681
N         -0.00296        2.08772       -0.02255
H         -0.98609        1.71972        0.14083
H          0.60896        1.65347        0.68689
C          0.07100        3.56179       -0.00660
H          1.09897        3.87891       -0.18149
H         -0.57908        3.95975       -0.78523
H         -0.26789        3.92090        0.96465
H          0.32616        1.68838       -0.90721
