35
2msa1ma1dma_245.log	Energy: -978617.3847307
S          0.76207        1.61287       -0.16097
O         -0.32064        2.58744        0.07755
O          0.72682        0.94582       -1.45836
O          0.78676        0.56479        1.00100
H         -0.12483        0.01345        1.02946
C          2.32559        2.40307        0.08191
H          2.43515        3.13666       -0.71747
H          2.31389        2.88754        1.05801
H          3.09121        1.61958        0.02937
S         -1.82840       -1.67318        0.04729
O         -2.46671       -2.81555        0.68101
O         -1.35355       -0.63225        1.04695
O         -2.65005       -0.98364       -0.99483
H         -2.76935        0.57785       -0.75701
C         -0.35533       -2.23601       -0.78808
H          0.29846       -2.70050       -0.04856
H         -0.66423       -2.96896       -1.53372
H          0.12732       -1.37956       -1.26213
N         -2.88479        1.59641       -0.45855
H         -1.93547        2.00115       -0.33309
C         -3.63634        1.64438        0.81883
H         -3.73883        2.67793        1.14932
H         -4.61599        1.18992        0.67298
H         -3.07162        1.06300        1.54696
H         -3.35868        2.10442       -1.20181
N          3.60329       -0.63275        0.24741
C          4.66467       -1.24428        1.03110
C          3.42051       -1.26805       -1.04992
H          2.73006       -0.66773        0.76513
H          5.62456       -1.09381        0.52536
H          4.72411       -0.76487        2.01194
H          4.53081       -2.32959        1.18108
H          4.32350       -1.12515       -1.65334
H          3.23113       -2.35382       -0.98243
H          2.58506       -0.79566       -1.57284
