43
2msa1eda1tma_211.log	Energy: -1062672.0880871
S         -2.47974       -0.54722       -0.41647
O         -2.15124        0.64906       -1.19567
O         -2.26871       -0.48329        1.02451
O         -1.76885       -1.80343       -1.02463
H         -0.78622       -1.93981       -0.68727
C         -4.17204       -0.97174       -0.75270
H         -4.78290       -0.14427       -0.39057
H         -4.29043       -1.09782       -1.82840
H         -4.40876       -1.89169       -0.21909
S          1.35353       -1.79199        0.84375
O          2.64248       -2.46836        0.95152
O          0.59296       -2.21815       -0.38955
O          1.43856       -0.29685        0.88130
H          1.67066        0.36339       -0.56619
C          0.33833       -2.24091        2.23487
H          0.20965       -3.32362        2.21804
H          0.86071       -1.93081        3.14019
H         -0.61841       -1.72400        2.13763
H         -0.43034        1.30235        1.69251
H         -0.51438        2.36366        3.10696
H         -2.02429        3.23101        1.47200
H         -0.63897        4.33831        1.55253
H         -1.15382        2.33890       -0.51865
H         -1.04603        3.95328       -0.70557
H          1.77120        1.74717        2.24697
H          1.49149        2.79964        1.04778
C         -0.17968        2.30665        2.06461
C         -0.95227        3.33304        1.24902
N          1.25563        2.58998        2.01263
N         -0.66497        3.16913       -0.18556
N          1.96554        0.65150       -1.54469
C          2.25567        2.10568       -1.52613
H          1.35008        2.63549       -1.20844
H          3.06338        2.29035       -0.81590
H          2.56434        2.42005       -2.52643
C          3.17079       -0.16246       -1.84067
H          3.93321        0.05457       -1.09245
H          2.90514       -1.21846       -1.77805
H          3.53433        0.08447       -2.84073
C          0.84673        0.32224       -2.46327
H          0.65534       -0.74852       -2.39438
H         -0.04547        0.86306       -2.14835
H          1.12988        0.59949       -3.48162
