42
2msa2eda_240.log	Energy: -1072756.4869843
S          0.50583        1.99533        0.40923
O          1.62081        1.85105        1.35830
O         -0.82873        1.75831        1.05841
O          0.64784        1.17028       -0.81823
C          0.48419        3.69490       -0.13141
H          0.34120        4.32618        0.74566
H          1.44053        3.90861       -0.60931
H         -0.33600        3.81944       -0.83891
S         -3.04872       -0.35391       -0.56952
O         -3.50749       -0.97005        0.67412
O         -1.90796       -0.98189       -1.23148
O         -2.80742        1.18202       -0.37134
H         -1.97609        1.39845        0.21552
C         -4.40977       -0.27955       -1.70881
H         -4.68710       -1.31024       -1.93173
H         -5.23388        0.24716       -1.22868
H         -4.07897        0.23644       -2.60947
H          1.55030       -2.41649        1.58854
H          1.56297       -0.63690        1.57938
H         -0.19465       -1.54245        3.13186
H         -0.90431       -0.60558        1.82772
H         -1.11316       -3.46289        2.21149
H         -2.13135       -2.41532        1.43795
H          1.60680       -1.88957       -0.61408
H         -0.06950       -2.15595       -0.30893
C          0.97291       -1.52211        1.33610
C         -0.37465       -1.53645        2.05009
N          0.74159       -1.54845       -0.13199
N         -1.15968       -2.67452        1.57861
H          0.52147       -0.59708       -0.48830
H          5.21761       -1.42105       -1.60967
H          3.82025       -1.27566       -2.68871
H          4.38884        0.88030       -1.57561
H          2.75033        0.34834       -1.21481
H          4.98471        0.35597        0.63613
H          3.41255        0.78658        0.85804
H          3.65532       -3.21710       -1.23267
H          3.69753       -2.21712        0.07353
C          4.12997       -1.25205       -1.63882
C          3.80473        0.11637       -1.04145
N          3.40154       -2.29283       -0.89942
N          4.02799        0.11420        0.40385
