35
2msa1ma1dma_83.log	Energy: -978627.5425151
S         -2.16528       -0.99733        0.02686
O         -3.03822       -0.01950       -0.63825
O         -2.01383       -0.82440        1.48227
O         -0.81379       -1.04816       -0.66694
C         -2.86980       -2.61573       -0.23364
H         -3.84719       -2.63369        0.24904
H         -2.96636       -2.77923       -1.30697
H         -2.20707       -3.35592        0.21550
S          2.36595       -0.70768        0.00220
O          2.43460        0.28926        1.06755
O          2.12991       -0.19190       -1.34876
O          1.31996       -1.82084        0.33579
H          0.37397       -1.54689       -0.02866
C          3.86053       -1.66656        0.01848
H          4.68280       -0.97803       -0.17820
H          3.96505       -2.11944        1.00425
H          3.79250       -2.42604       -0.75949
N         -1.13789        2.02737        1.53146
H         -1.89137        2.69106        1.68246
C         -0.02884        2.27103        2.46437
H         -0.32829        2.20196        3.51680
H          0.75682        1.53528        2.27727
H          0.39037        3.26638        2.28845
H         -1.53271        1.09649        1.69647
N         -0.15455        1.79862       -1.02938
C          1.05386        2.64662       -1.05516
C         -1.15684        2.13052       -2.06418
H          0.10325        0.80725       -1.12864
H          0.75250        3.68589       -0.90730
H          1.72019        2.32703       -0.25392
H          1.56187        2.53267       -2.01318
H         -1.48323        3.16227       -1.91904
H         -0.70524        2.02115       -3.05198
H         -2.00079        1.44908       -1.94578
H         -0.60317        1.88991       -0.04909
