37
2msa1ma1eda_175.log	Energy: -1013362.1753009
S         -0.84852        1.76717        0.01116
O          0.27815        2.02327        0.91978
O         -2.10339        1.33891        0.65717
O         -0.46740        0.78081       -1.08212
C         -1.19195        3.28720       -0.85562
H         -1.99856        3.10647       -1.56615
H         -1.48934        4.03023       -0.11535
H         -0.28375        3.59963       -1.37135
S          2.74243       -0.57127       -0.43658
O          3.91045       -1.20627       -1.00738
O          1.76480       -1.39823        0.27987
O          2.00805        0.19592       -1.61162
H          1.06448        0.46299       -1.37292
C          3.24066        0.73992        0.65437
H          3.73614        0.27697        1.50865
H          3.93218        1.38118        0.10790
H          2.34412        1.28648        0.95705
N         -1.38575       -0.84485        2.55511
H         -1.83129        0.02888        2.26931
C         -0.09058       -0.56447        3.19295
H         -0.18735       -0.02267        4.14091
H          0.43883       -1.50354        3.37315
H          0.50691        0.04128        2.50919
H         -2.01070       -1.31813        3.19953
H         -1.78170       -3.09072       -1.43351
H         -2.34335       -3.32119        0.24350
H         -4.13459       -2.30683       -0.99686
H         -3.48658       -1.05809        0.08008
H         -3.87561       -0.46500       -2.35503
H         -2.36921       -0.11302       -1.82798
H         -0.03757       -2.28506       -0.02367
H         -0.77937       -0.92223       -0.53410
C         -2.08494       -2.57977       -0.51740
C         -3.26768       -1.66499       -0.81300
N         -0.93598       -1.79740       -0.00157
N         -3.01577       -0.87679       -2.01265
H         -1.11196       -1.49139        1.01468
