30
2msa1eda_26.log	Energy: -953205.6365252
S         -2.35922       -0.22567       -0.03777
O         -1.85946       -1.60197        0.04917
O         -2.10108        0.47609       -1.29062
O         -1.84830        0.61628        1.18262
H         -0.81085        0.70964        1.13449
C         -4.09879       -0.23080        0.31132
H         -4.25419       -0.71139        1.27661
H         -4.45091        0.80031        0.32058
H         -4.57971       -0.79652       -0.48711
S          1.42172        1.57038        0.01109
O          2.64200        2.11538        0.58922
O          0.63412        0.72805        0.99708
O          1.62221        0.78797       -1.24619
H          0.98737       -0.68488       -1.22712
C          0.33791        2.91771       -0.42430
H          0.11814        3.48228        0.48246
H          0.86644        3.54219       -1.14494
H         -0.57024        2.50141       -0.86423
H          1.66997       -3.56627       -0.85795
H          2.64379       -2.35368       -1.74094
H          3.40159       -2.75529        0.64835
H          3.01841       -1.07146        0.29550
H          1.89003       -2.56012        2.30782
H          1.26780       -1.15526        1.70574
H          0.23555       -1.99245       -1.99069
H          0.06985       -1.82010       -0.36200
C          1.96030       -2.51398       -0.90391
C          2.58056       -2.06856        0.42193
N          0.73281       -1.71394       -1.14769
N          1.56733       -2.09811        1.46911
