40
2msa1dma1eda_309.log	Energy: -1038016.1230541
S          1.15503       -1.98656       -0.71652
O          0.20538       -1.75303       -1.81133
O          0.46534       -2.14070        0.61452
O          2.22912       -0.95955       -0.63699
C          1.97075       -3.54483       -0.99684
H          1.20674       -4.32134       -1.03309
H          2.49977       -3.47832       -1.94769
H          2.66659       -3.72225       -0.17692
S         -2.43005       -0.26215        0.69234
O         -2.96056       -0.01735       -0.64052
O         -1.37822        0.66564        1.14727
O         -1.96116       -1.73316        0.88084
H         -0.92788       -1.88895        0.71923
C         -3.76260       -0.20351        1.86534
H         -4.20702        0.78979        1.79890
H         -4.48856       -0.96814        1.58968
H         -3.35626       -0.38592        2.85945
N          2.67998        1.38688        1.30134
C          1.85867        0.79972        2.35468
C          3.67424        2.31531        1.81410
H          3.13256        0.63063        0.79484
H          1.19463        1.56330        2.77480
H          1.23960        0.00073        1.93878
H          2.45651        0.37636        3.17975
H          3.17150        3.17978        2.26179
H          4.32974        1.87466        2.58534
H          4.30171        2.67916        0.99541
H          0.60761        1.59465       -2.81255
H         -0.66956        0.53585       -2.18540
H         -1.62423        2.74118       -2.86768
H         -1.79663        2.47605       -1.13424
H          0.13589        4.27331       -2.40630
H         -0.88343        4.57550       -1.16481
H          1.32430        0.57410       -0.77002
H          1.08908        2.19811       -0.47395
C         -0.13005        1.46894       -2.01503
C         -1.06547        2.66453       -1.92578
N          0.61336        1.33229       -0.74087
N         -0.29822        3.86438       -1.58571
H         -0.04070        1.10056        0.02902
