37
2msa1ma1eda_191.log	Energy: -1013361.2977729
S          0.65895        1.90238       -0.39468
O          1.63111        2.91624       -0.00128
O         -0.09763        1.34254        0.79724
O          1.22015        0.78027       -1.19790
H          0.69871       -0.79531       -0.56576
C         -0.58792        2.66310       -1.41773
H         -1.05426        3.46576       -0.84540
H         -0.08861        3.06409       -2.30012
H         -1.31610        1.89962       -1.69809
S         -2.71618       -0.59230        0.08778
O         -2.04941       -1.73479        0.72823
O         -2.39686       -0.36355       -1.31655
O         -2.48863        0.70967        0.92499
H         -1.48558        1.01951        0.85931
C         -4.46802       -0.78516        0.29228
H         -4.75249       -1.68481       -0.25415
H         -4.68116       -0.89316        1.35520
H         -4.95958        0.09337       -0.12425
N          1.82089       -0.40371        2.31865
H          1.08690        0.30320        2.34355
C          3.12393        0.25223        2.13412
H          3.45477        0.80627        3.02081
H          3.87379       -0.49618        1.86937
H          3.04537        0.96237        1.30784
H          1.79641       -0.91037        3.19773
H          1.90840       -3.37120        0.16192
H          0.72276       -3.34130       -1.16592
H          3.07517       -3.08648       -1.95215
H          2.03775       -1.73383       -2.41945
H          4.34358       -1.29506       -1.34009
H          3.07634       -0.39295       -0.84461
H         -0.20632       -1.86590        0.33753
H          1.26418       -1.27052        0.92183
C          1.45807       -2.74904       -0.61526
C          2.52937       -2.22119       -1.56375
N          0.75355       -1.62824        0.05334
N          3.45316       -1.33964       -0.85920
