38
2msa1ma1tma_28.log	Energy: -1003284.3875611
S          1.14434       -0.35824       -0.85737
O          0.53438        0.56698       -1.84202
O          1.14931        0.17584        0.52424
O          2.54141       -0.76151       -1.26812
H          3.51620       -0.35916       -0.20889
C          0.18659       -1.85322       -0.87571
H         -0.84835       -1.62996       -0.59433
H          0.23036       -2.26144       -1.88593
H          0.63269       -2.54614       -0.16144
S         -3.56869       -0.41803        0.36946
O         -2.93065        0.13098        1.58144
O         -2.94537       -1.64604       -0.15551
O         -3.72215        0.64300       -0.69472
H         -2.46168        1.50665       -0.83749
C         -5.25086       -0.84310        0.80187
H         -5.74735        0.05168        1.17762
H         -5.74964       -1.21827       -0.09193
H         -5.21243       -1.61394        1.57214
N         -1.55824        2.09740       -0.88175
H         -0.79694        1.49799       -1.26854
C         -1.19949        2.57827        0.47329
H         -0.23134        3.07872        0.43871
H         -1.97473        3.25856        0.82629
H         -1.15918        1.71238        1.13332
H         -1.70610        2.86651       -1.53039
N          4.23011       -0.06557        0.55933
C          5.57689       -0.40546        0.05500
H          5.62694       -1.47962       -0.12623
H          5.74628        0.12332       -0.88359
H          6.33168       -0.11548        0.79030
C          4.05813        1.39308        0.75755
H          4.25423        1.89821       -0.18912
H          3.02322        1.56861        1.05253
H          4.75498        1.74228        1.52392
C          3.87579       -0.82464        1.78252
H          2.83392       -0.60605        2.01977
H          3.98672       -1.89008        1.57722
H          4.53935       -0.53065        2.59990
