42
2msa2eda_432.log	Energy: -1072750.3598815
S          0.48597        1.62105       -0.05396
O         -0.91963        1.94428        0.30132
O          0.61305        0.82524       -1.29531
O          1.23957        0.99431        1.07389
C          1.27216        3.19547       -0.34331
H          0.76785        3.67789       -1.18076
H          1.17596        3.79404        0.56271
H          2.32211        3.01508       -0.57838
S         -3.76889       -0.24600        0.10749
O         -3.18998       -0.35657        1.43796
O         -4.04595       -1.45598       -0.65155
O         -2.86707        0.68446       -0.80098
H         -2.12213        1.15564       -0.29917
C         -5.27523        0.69788        0.21222
H         -5.05700        1.64431        0.70674
H         -5.65196        0.85791       -0.79769
H         -5.98245        0.11046        0.79888
H          0.99496       -3.54104        0.06523
H          0.98499       -2.70396        1.64369
H         -1.32889       -2.97077        0.65570
H         -0.90136       -1.29241        0.92738
H         -1.78687       -2.22488       -1.39668
H         -0.77208       -0.95966       -1.34806
H          2.70577       -1.82305        0.02850
H          1.39279       -1.35549       -0.93628
C          0.77565       -2.60076        0.57640
C         -0.66504       -2.17239        0.31465
N          1.68521       -1.56587        0.02528
N         -0.85235       -1.94773       -1.11717
H          1.57607       -0.66629        0.54126
H          6.16000       -0.59413       -0.45343
H          4.99354       -0.97291       -1.73222
H          4.81927        1.38684       -0.89224
H          3.31687        0.48712       -0.76527
H          4.95184        1.40886        1.42657
H          3.32461        1.11023        1.35215
H          5.03325       -2.69480       -0.02506
H          4.61931       -1.57218        1.10563
C          5.09056       -0.73544       -0.66783
C          4.33177        0.55886       -0.35895
N          4.51840       -1.83340        0.12507
N          4.24463        0.77195        1.08288
