35
2msa1ma1dma_38.log	Energy: -978629.5741963
S          1.71019       -1.39221       -0.12001
O          0.51688       -1.59240        0.78110
O          2.75564       -0.60749        0.55503
O          1.30812       -0.86147       -1.44457
C          2.36151       -3.02747       -0.40246
H          2.61717       -3.46111        0.56426
H          1.59577       -3.61985       -0.90367
H          3.24756       -2.93241       -1.03044
S         -2.51498       -0.21494        0.02732
O         -1.90803        0.58850       -1.03289
O         -2.55035        0.37853        1.36088
O         -1.88082       -1.64790        0.06291
H         -0.87382       -1.62903        0.31409
C         -4.16799       -0.65396       -0.45538
H         -4.73681        0.27457       -0.51132
H         -4.12467       -1.14296       -1.42795
H         -4.58278       -1.31710        0.30312
N          0.31332        1.37101        1.66471
H         -0.62760        1.61097        1.96621
C          1.33983        1.89424        2.57081
H          1.16415        1.63541        3.62178
H          2.30574        1.47906        2.27263
H          1.38745        2.98481        2.48963
H          0.34600        0.35037        1.66406
N          0.91083        1.87507       -0.96721
C          2.34706        2.22480       -0.95599
C          0.05710        2.86270       -1.65154
H          0.81101        0.92841       -1.37805
H          2.47535        3.17716       -0.43705
H          2.88598        1.43182       -0.43492
H          2.71121        2.31279       -1.98162
H          0.16350        3.82795       -1.15179
H          0.36876        2.95788       -2.69387
H         -0.97471        2.52031       -1.59719
H          0.59176        1.73886        0.06043
