40
2msa1dma1eda_317.log	Energy: -1038017.0150337
S         -0.49233        2.13495        0.46861
O         -1.53900        2.25236       -0.55291
O          0.86899        1.84915       -0.09988
O         -0.82467        1.16690        1.55422
C         -0.32236        3.72346        1.25568
H         -0.05654        4.45160        0.48947
H         -1.28228        3.97331        1.70792
H          0.45633        3.65284        2.01484
S          2.97729       -0.75864       -0.49132
O          3.56071       -1.79360       -1.31654
O          2.69451       -1.06631        0.91796
O          1.64079       -0.28816       -1.19056
H          1.26782        0.57139       -0.76496
C          3.99162        0.70252       -0.52277
H          4.92097        0.46125       -0.00605
H          4.18143        0.95576       -1.56568
H          3.45355        1.50351       -0.01348
N         -2.90501       -0.34049       -1.35652
C         -4.24488       -0.20239       -1.91107
C         -1.90547       -0.60357       -2.38691
H         -2.64588        0.53256       -0.89832
H         -4.56658       -1.15649       -2.34450
H         -4.94789        0.06177       -1.11651
H         -4.30795        0.56487       -2.69995
H         -2.09275       -1.58186       -2.84426
H         -1.90103        0.15570       -3.18412
H         -0.90804       -0.62825       -1.94016
H         -0.44969       -3.13086        2.42949
H         -0.77337       -1.59116        3.27188
H         -2.90330       -2.78864        2.46057
H         -2.71001       -1.14701        1.83732
H         -2.71810       -3.54114        0.29923
H         -2.69553       -1.94041       -0.22296
H          0.96519       -1.48487        1.38603
H         -0.35404       -1.80581        0.39418
C         -0.85759       -2.12288        2.32234
C         -2.29907       -2.16245        1.79610
N         -0.05947       -1.40937        1.30047
N         -2.28825       -2.63477        0.41847
H         -0.30665       -0.38744        1.31774
