38
2msa1ma1tma_116.log	Energy: -1003275.1698235
S          2.65063       -1.46173        0.19315
O          3.10657       -2.77051        0.62272
O          2.40889       -0.42799        1.19841
O          1.32167       -1.65675       -0.66165
H          0.59310       -1.03983       -0.35339
C          3.77077       -0.82714       -1.02872
H          4.73410       -0.69717       -0.53278
H          3.85045       -1.56860       -1.82417
H          3.37966        0.13115       -1.39633
S         -0.95453        1.13915        0.46421
O         -0.38648        2.09040       -0.49237
O         -0.75744       -0.29883        0.08263
O         -2.42232        1.35018        0.72382
H         -3.20994        0.18513        0.11650
C         -0.14150        1.37183        2.02839
H          0.90948        1.11215        1.89188
H         -0.26780        2.41574        2.31604
H         -0.60280        0.70529        2.75697
N          2.51916        2.17327       -1.46852
H          2.64580        2.84172       -2.22090
C          3.11929        2.67641       -0.23319
H          2.67568        3.61175        0.13896
H          3.01562        1.91444        0.54506
H          4.19029        2.84440       -0.38663
H          1.51526        2.06839       -1.33352
N         -3.77805       -0.61691       -0.32788
C         -3.46658       -1.84602        0.44147
H         -2.38820       -1.99936        0.40542
H         -3.77721       -1.69823        1.47636
H         -4.00077       -2.69379        0.00564
C         -5.20393       -0.23698       -0.22737
H         -5.45933       -0.10469        0.82443
H         -5.35552        0.70583       -0.75375
H         -5.82676       -1.01866       -0.66889
C         -3.32452       -0.72416       -1.73663
H         -3.50274        0.23002       -2.23380
H         -2.25451       -0.93182       -1.73131
H         -3.87755       -1.52287       -2.23689
