25
2msa1ma_36.log	Energy: -893799.2688852
S          2.24529       -0.15037       -0.06433
O          1.76675       -1.01865       -1.12569
O          1.88435        1.26271       -0.07618
O          3.86846       -0.21064       -0.09692
H          4.13345       -0.66916       -0.90768
C          1.92703       -0.83185        1.53611
H          0.83891       -0.78443        1.65812
H          2.29649       -1.85698        1.54387
H          2.44555       -0.21570        2.27083
S         -2.07439       -0.67982        0.07052
O         -3.29124       -0.98671        0.81625
O         -0.93873       -0.16885        0.89383
O         -2.29475        0.25877       -1.09285
H         -1.39934        1.45632       -0.93448
C         -1.50086       -2.19913       -0.67419
H         -1.35947       -2.93031        0.12301
H         -2.26605       -2.54381       -1.37030
H         -0.56100       -2.00009       -1.19023
N         -0.73781        2.28171       -0.67261
H          0.18127        1.86192       -0.46909
C         -1.26306        2.96898        0.52945
H         -0.58140        3.76365        0.83447
H         -2.24776        3.37839        0.30482
H         -1.34891        2.21696        1.31360
H         -0.63865        2.91325       -1.46358
