43
2msa1eda1tma_152.log	Energy: -1062678.3467787
S          1.28199       -0.35355        1.21919
O          0.97674       -0.23505       -0.22990
O          0.60663        0.66730        2.04801
O          2.77777       -0.35415        1.43229
H          3.47543       -0.01871        0.15329
C          0.70845       -1.94145        1.76969
H         -0.37355       -1.97693        1.59724
H          1.22454       -2.70884        1.19116
H          0.94547       -2.03331        2.82997
S         -2.77646       -1.59181       -0.45611
O         -4.00183       -2.34073       -0.73286
O         -2.31854       -1.59536        0.95692
O         -2.80768       -0.17352       -0.97070
H         -2.22537        0.69727        0.22829
C         -1.46403       -2.37708       -1.39213
H         -1.37768       -3.40893       -1.04720
H         -1.73603       -2.35408       -2.44832
H         -0.54043       -1.82266       -1.21284
H         -0.63720        3.18675        0.48974
H         -0.56088        1.94477       -0.78209
H         -1.97836        3.88151       -1.53453
H         -2.91477        2.38473       -1.39378
H         -3.02925        4.66140        0.43473
H         -4.24937        3.75716       -0.18342
H         -1.03957        1.05477        1.42207
H         -2.51497        1.89470        1.39199
C         -1.22457        2.47100       -0.09325
C         -2.37986        3.14853       -0.82168
N         -1.78242        1.46039        0.82717
N         -3.29862        3.72318        0.16202
N          3.98923        0.21871       -0.77662
C          3.41248        1.49262       -1.26782
H          2.34157        1.34099       -1.40557
H          3.57455        2.26276       -0.51243
H          3.89743        1.77486       -2.20584
C          5.42741        0.34314       -0.45874
H          5.55739        1.13285        0.28201
H          5.78103       -0.60012       -0.04111
H          5.98735        0.58381       -1.36604
C          3.71218       -0.89848       -1.71022
H          4.11400       -1.81785       -1.28245
H          2.63023       -0.98769       -1.81268
H          4.18545       -0.69691       -2.67467
