42
2msa2eda_86.log	Energy: -1072768.5915228
S         -2.49209       -0.38445        0.44227
O         -2.93486       -1.73998        0.08480
O         -2.17979        0.46692       -0.75252
O         -1.34052       -0.35505        1.39297
C         -3.84345        0.42389        1.27741
H         -4.70913        0.39870        0.61488
H         -4.04834       -0.12012        2.19956
H         -3.54968        1.45341        1.48660
S          3.05380        0.18573        0.20655
O          2.23879        0.74118        1.32345
O          2.54763        0.63954       -1.11691
O          3.19856       -1.29000        0.30024
C          4.69810        0.85016        0.38714
H          4.63657        1.93668        0.32297
H          5.08475        0.54129        1.35833
H          5.31460        0.45120       -0.41855
H         -0.48442        3.41767        1.02232
H          0.93590        3.76119        0.00675
H         -0.90480        4.95061       -0.94253
H         -0.59928        3.58917       -2.02229
H         -2.99028        4.01386       -1.35151
H         -2.51836        2.48690       -0.97290
H          0.66102        1.40523        0.65852
H         -0.70648        1.30277       -0.33756
C         -0.04395        3.27946        0.03305
C         -0.97566        3.86132       -1.02120
N          0.17906        1.82408       -0.15942
N         -2.35819        3.47321       -0.77314
H          0.84292        1.62089       -0.92166
H         -0.50415       -1.41452       -1.14070
H          1.19840       -1.76685       -1.48277
H         -0.55229       -3.43824       -2.41279
H          0.77207       -4.16852       -1.49008
H         -1.86261       -3.54685       -0.32927
H         -1.22335       -5.05463       -0.58893
H          0.03460       -1.40867        0.98630
H          0.24589       -3.04713        0.85475
C          0.30705       -2.12158       -0.96374
C         -0.11021       -3.52355       -1.41125
N          0.59280       -2.14178        0.50241
N         -0.99913       -4.08604       -0.40023
H          1.60770       -1.98982        0.66737
