40
2msa1dma1eda_382.log	Energy: -1038015.6134098
S         -0.53261       -1.48362       -0.45150
O          0.52987       -2.40462       -0.95361
O         -1.00057       -0.50270       -1.44159
O         -0.06295       -0.82781        0.82337
H          0.20224        0.66945        0.91325
C         -1.90414       -2.52068        0.00049
H         -2.23315       -3.03084       -0.90578
H         -1.54900       -3.24309        0.73573
H         -2.71532       -1.91371        0.41357
S          1.54294        2.16739        0.04601
O          1.99029        3.46087        0.51079
O          0.43139        1.65961        1.03741
O          2.55349        1.10817       -0.12667
H          2.66631       -0.56866        0.16707
C          0.69535        2.33917       -1.50649
H         -0.07527        3.10192       -1.38861
H          1.43757        2.65620       -2.23999
H          0.25662        1.37376       -1.77278
N          2.81073       -1.59623        0.22396
C          2.82252       -2.00168        1.64485
C          4.02619       -1.95211       -0.53363
H          1.95911       -2.00196       -0.24736
H          3.64911       -1.50513        2.15577
H          1.86987       -1.70328        2.08224
H          2.94126       -3.08457        1.70855
H          4.89249       -1.46775       -0.08061
H          4.15540       -3.03540       -0.52146
H          3.90800       -1.60739       -1.56073
H         -2.57594        0.30692        1.18293
H         -3.76561        1.57692        1.48592
H         -5.02183        0.95993       -0.51961
H         -3.75728       -0.17482       -1.00748
H         -5.30210       -0.49534        1.47310
H         -5.52237       -1.35739        0.10791
H         -1.90917        2.53342        0.40710
H         -1.97526        1.45681       -0.81313
C         -3.24816        1.02710        0.68919
C         -4.26910        0.25517       -0.13810
N         -2.54841        1.98582       -0.15962
N         -4.82932       -0.84905        0.64663
