43
2msa1eda1tma_54.log	Energy: -1062683.8759027
S         -1.73692        2.10320       -0.14944
O         -2.05510        3.50997       -0.26274
O         -0.46540        1.73620        0.49608
O         -1.78474        1.47998       -1.59046
C         -3.04039        1.25885        0.71545
H         -3.05765        1.65056        1.73358
H         -3.97740        1.48147        0.20476
H         -2.81635        0.18912        0.69813
S         -0.81334       -1.94810       -0.91377
O         -1.68898       -1.61620        0.23629
O          0.49538       -2.50012       -0.50153
O         -0.65860       -0.78338       -1.84459
H         -1.34233        0.55926       -1.64802
C         -1.63385       -3.21636       -1.85868
H         -1.76183       -4.08610       -1.21421
H         -2.59891       -2.82773       -2.18434
H         -1.00619       -3.45952       -2.71607
H          2.13851       -0.85497        2.97861
H          1.62019        0.84820        2.82336
H          0.14789       -0.41070        4.35928
H         -0.73684        0.18336        2.94997
H         -0.90643       -2.31941        3.73708
H         -0.85925       -2.00571        2.12806
H          2.11734       -0.00993        0.62384
H          1.06851       -1.31882        0.85261
C          1.34888       -0.19118        2.61984
C          0.02079       -0.54423        3.28060
N          1.25408       -0.34622        1.15163
N         -0.33551       -1.92751        2.99916
H          0.47997        0.24076        0.79717
N          3.19485        0.64916       -0.55466
C          2.88795        2.07867       -0.60412
H          1.80742        2.22066       -0.68928
H          3.22572        2.55942        0.31856
H          3.38079        2.57287       -1.45710
C          4.61713        0.41602       -0.33227
H          4.93095        0.89763        0.59836
H          4.80546       -0.65792       -0.24914
H          5.23333        0.81506       -1.15519
C          2.72857       -0.02765       -1.76794
H          2.90885       -1.10222       -1.68114
H          1.65129        0.11514       -1.88704
H          3.24218        0.35352       -2.66522
