32
2msa2ma_209.log	Energy: -953957.5903839
S         -1.95521       -0.54648        0.04285
O         -3.06728        0.32521        0.43837
O         -1.08140       -1.02078        1.12741
O         -1.13413        0.14157       -1.04809
H          0.41746        0.03762       -1.08316
C         -2.63319       -1.98782       -0.75622
H         -3.23784       -2.51920       -0.02071
H         -3.24619       -1.66162       -1.59623
H         -1.80529       -2.61089       -1.09657
S          2.18659        0.85629       -0.07574
O          3.56417        0.97892       -0.49395
O          1.42619        0.04009       -1.19541
O          1.43430        2.10035        0.19066
H         -0.04776        2.74066       -0.37547
C          2.05726       -0.15988        1.36958
H          2.45910       -1.14993        1.14384
H          2.62502        0.33649        2.15764
H          0.99958       -0.24950        1.62604
N          1.08330       -3.25696        0.87291
H          0.99701       -4.14483        1.35422
C          1.11909       -3.44822       -0.57324
H          0.23520       -3.95394       -0.99627
H          1.22072       -2.47458       -1.06077
H          1.99941       -4.03817       -0.84524
H          0.28688       -2.68051        1.13436
N         -1.07695        2.79064       -0.53050
H         -1.28881        3.44145       -1.28283
C         -1.77276        3.14113        0.73336
H         -2.84696        3.04359        0.59028
H         -1.45783        2.43014        1.49502
H         -1.49861        4.15493        1.02453
H         -1.31496        1.81138       -0.83205
