34
2msa1a1eda_311.log	Energy: -988691.0820124
S         -2.72961       -0.44756        0.15324
O         -2.81152       -1.88200        0.38622
O         -2.23485        0.00861       -1.14369
O         -1.89686        0.24225        1.30359
H         -0.95841        0.49008        0.98202
C         -4.32593        0.27351        0.45429
H         -5.01557       -0.16170       -0.26957
H         -4.62826        0.02651        1.47182
H         -4.24482        1.35139        0.31803
S          0.97539        1.89831       -0.22146
O          0.29816        3.12839        0.16620
O          0.48877        0.68449        0.56627
O          2.46571        1.92150       -0.14523
H          3.03383        0.90732        1.14522
C          0.56117        1.54359       -1.91741
H         -0.51619        1.38005       -1.97141
H          0.86386        2.40446       -2.51427
H          1.09853        0.64935       -2.23533
N          2.84714        0.11958        1.81117
H          1.81389        0.09865        1.79253
H          3.20858        0.30429        2.74139
H          3.21244       -0.79206        1.39576
H          0.94725       -1.95473        0.78533
H          1.21070       -3.51999        0.00332
H          2.74249       -2.50641       -1.62671
H          2.44463       -0.89703       -0.95371
H          3.54755       -3.06453        0.69329
H          4.47450       -1.98200       -0.09021
H         -0.71942       -2.68792       -0.95891
H         -0.11438       -1.21325       -1.20866
C          1.15602       -2.43975       -0.18309
C          2.50731       -1.96278       -0.70493
N          0.13850       -2.19748       -1.18987
N          3.55715       -2.11608        0.32606
