38
2msa1ma1tma_48.log	Energy: -1003283.5520887
S          1.00435       -0.71921        0.61799
O          0.52190       -1.27792       -0.64990
O          0.98962        0.78095        0.63627
O          2.39283       -1.19981        0.97429
H          3.40055       -0.47660        0.17455
C         -0.03927       -1.28533        1.93570
H         -1.06044       -0.95611        1.71355
H          0.02845       -2.37343        1.96104
H          0.32853       -0.85374        2.86683
S         -3.48340       -0.32637       -0.32593
O         -4.93565       -0.44699       -0.21605
O         -2.76138       -0.07946        0.95257
O         -3.04610        0.69790       -1.35126
H         -1.96812        1.55313       -0.77514
C         -2.85976       -1.88143       -0.94994
H         -3.14580       -2.66130       -0.24266
H         -3.32081       -2.06441       -1.92115
H         -1.77369       -1.81015       -1.03664
N         -1.22784        2.19639       -0.29259
H         -0.43741        1.60049        0.02840
C         -1.85078        2.89339        0.85431
H         -1.10638        3.49618        1.37695
H         -2.66264        3.52445        0.49151
H         -2.25951        2.12509        1.51050
H         -0.87189        2.85254       -0.98284
N          4.08657        0.12354       -0.43111
C          4.20928        1.42570        0.26444
H          3.20283        1.82036        0.41362
H          4.67611        1.26213        1.23632
H          4.81873        2.10671       -0.33540
C          5.37361       -0.59658       -0.51889
H          5.76799       -0.74386        0.48707
H          5.20348       -1.56795       -0.98422
H          6.08176       -0.01586       -1.11576
C          3.43947        0.27217       -1.75748
H          3.27422       -0.71768       -2.18320
H          2.47214        0.75459       -1.61591
H          4.08029        0.87018       -2.41059
