35
2msa1ma1dma_308.log	Energy: -978613.7114723
S          1.80631       -0.43267       -0.39768
O          0.90764       -0.53602       -1.53711
O          2.09541        0.90568        0.13234
O          3.17523       -1.12973       -0.74584
H          3.98505       -0.48425       -0.53010
C          1.17515       -1.44579        0.91547
H          0.18985       -1.04883        1.18507
H          1.09005       -2.46594        0.53965
H          1.87185       -1.39742        1.75248
S         -2.82662       -0.90747        0.25391
O         -3.94136       -1.49829        0.98937
O         -1.78820       -0.24205        1.08688
O         -3.27380        0.04119       -0.84126
H         -2.65393        1.34338       -0.71436
C         -2.00059       -2.22686       -0.62441
H         -1.67446       -2.96426        0.11083
H         -2.71914       -2.67510       -1.31111
H         -1.15036       -1.80739       -1.16566
N          5.06104        0.51303       -0.13383
H          5.93478        0.42663       -0.64383
C          5.27946        0.44057        1.31827
H          5.97305        1.20352        1.68672
H          4.31564        0.56994        1.81443
H          5.67234       -0.54646        1.57115
H          4.64118        1.40589       -0.38057
N         -2.21688        2.34611       -0.55567
C         -0.73946        2.23741       -0.59009
C         -2.74067        2.85232        0.73279
H         -2.54177        2.93388       -1.32119
H         -0.43515        1.61517        0.24900
H         -0.43571        1.74289       -1.51249
H         -0.28717        3.22828       -0.51365
H         -2.46373        2.12741        1.49972
H         -2.31178        3.83254        0.95188
H         -3.82748        2.91614        0.67152
