28
2msa1dma_19.log	Energy: -918467.7444678
S         -2.06513       -0.88917        0.06693
O         -3.24624       -1.48849        0.66928
O         -0.96215       -0.58739        1.05185
O         -2.33949        0.35403       -0.73014
H         -1.53059        1.57374       -0.31904
C         -1.37532       -2.05082       -1.09835
H         -1.13937       -2.96996       -0.56047
H         -2.13356       -2.24107       -1.85838
H         -0.47822       -1.61234       -1.53906
S          2.16624       -0.34523        0.00618
O          2.34095        0.91600        0.72391
O          1.56340       -0.25327       -1.32417
O          1.38947       -1.38421        0.88659
H          0.38995       -1.09776        0.98203
C          3.73428       -1.16913       -0.11146
H          4.38027       -0.53131       -0.71541
H          4.13818       -1.28847        0.89350
H          3.58283       -2.13422       -0.59377
N         -1.05212        2.52288       -0.12708
C         -0.05322        2.76932       -1.19543
C         -0.49086        2.55230        1.24759
H         -1.80337        3.20807       -0.19850
H          0.67971        1.96306       -1.17310
H         -0.56615        2.76650       -2.15739
H          0.43646        3.72998       -1.02621
H          0.36866        1.88374        1.28404
H         -0.18043        3.57166        1.48587
H         -1.25429        2.20529        1.94304
