40
2msa1dma1eda_277.log	Energy: -1038019.1926359
S          2.88425       -0.39715       -0.84302
O          4.28505       -0.52692       -1.18888
O          2.22770        0.89017       -1.14176
O          2.66098       -0.69443        0.69377
H          2.41682        0.15926        1.21183
C          1.95432       -1.71134       -1.58251
H          2.41125       -2.65185       -1.27380
H          0.91232       -1.65037       -1.25087
H          2.03909       -1.58380       -2.66257
S         -1.89405       -1.54067        0.56657
O         -1.14714       -1.66943       -0.70843
O         -3.21389       -0.89358        0.41136
O         -1.05078       -0.87909        1.61659
H         -0.39120        0.40532        0.76277
C         -2.19666       -3.19213        1.17178
H         -2.80353       -3.71563        0.43267
H         -1.23552       -3.68846        1.30651
H         -2.72793       -3.11387        2.12042
N         -2.47705        1.51853       -1.18907
C         -2.19768        0.98315       -2.52226
C         -3.24380        2.75861       -1.21646
H         -2.98442        0.80192       -0.66061
H         -1.52426        1.66034       -3.05936
H         -1.71606        0.00872       -2.41022
H         -3.11235        0.85968       -3.11998
H         -2.65625        3.54686       -1.69980
H         -4.19235        2.65796       -1.76439
H         -3.46976        3.07430       -0.19413
H          0.46174        3.23836        0.84961
H         -0.99413        2.64791        1.66377
H          0.80795        2.66496        3.26293
H          0.32013        0.99101        2.93176
H          2.65938        2.25872        1.66612
H          2.71589        1.25942        2.95338
H         -1.02818        1.50598       -0.34244
H          0.67393        1.19472       -0.29623
C          0.00005        2.36034        1.31242
C          0.80960        1.87158        2.50516
N         -0.16891        1.31619        0.28651
N          2.17796        1.48508        2.12054
