43
2msa1eda1tma_121.log	Energy: -1062684.2398456
S          1.86460        1.42435        0.79341
O          1.70602        2.88501        0.80312
O          3.24203        0.90928        0.65303
O          0.98548        0.79488       -0.27965
H          1.83088       -0.22365       -1.02566
C          1.20711        0.79915        2.32743
H          1.80471        1.21413        3.13986
H          0.16204        1.10211        2.39828
H          1.25522       -0.29013        2.30876
S         -1.76967       -1.17026        0.80947
O         -0.72923       -1.88978        1.55965
O         -1.70185       -1.37106       -0.66884
O         -1.86550        0.28203        1.14213
H         -1.31244        1.10772       -0.35703
C         -3.33242       -1.87058        1.33040
H         -3.32173       -2.93711        1.10352
H         -3.43427       -1.71010        2.40399
H         -4.13835       -1.37184        0.79050
H          3.55549       -2.67526       -1.31034
H          3.34453       -1.66434        0.15137
H          1.85757       -3.82022        0.01649
H          1.02435       -2.31690        0.39010
H          0.65209       -3.90541       -1.91963
H         -0.20719       -2.59964       -1.37994
H          3.23006       -0.41149       -1.96437
H          1.83951       -1.33281       -2.31789
C          2.85133       -2.06687       -0.73467
C          1.57569       -2.84476       -0.39261
N          2.43811       -0.92405       -1.58568
N          0.72870       -2.95392       -1.58503
N         -1.60945        1.76604       -1.11438
C         -3.07777        1.59880       -1.23452
H         -3.27625        0.56607       -1.52276
H         -3.52833        1.79345       -0.26239
H         -3.45564        2.29611       -1.98595
C         -1.23667        3.12790       -0.65507
H         -1.75469        3.32296        0.28445
H         -0.15965        3.16230       -0.47844
H         -1.54131        3.85404       -1.41256
C         -0.92694        1.38823       -2.37410
H          0.13739        1.57189       -2.24683
H         -1.10417        0.32476       -2.54001
H         -1.33762        1.98748       -3.19061
