43
2msa1eda1tma_150.log	Energy: -1062675.7043740
S          0.71906       -1.27737       -1.27636
O          1.83143       -1.72120       -2.09157
O         -0.58553       -1.94268       -1.85093
O          0.51418        0.18169       -1.17580
H         -0.82454        1.26976       -1.12366
C          0.86015       -1.91113        0.37229
H          0.91111       -2.99812        0.30266
H          1.78853       -1.49114        0.78245
H         -0.01318       -1.57847        0.93989
S         -2.96340       -0.65574        0.65266
O         -3.58555        0.53300       -0.00008
O         -1.81507       -0.29422        1.50785
O         -2.63016       -1.72987       -0.32982
H         -1.39856       -1.80305       -1.25238
C         -4.22681       -1.35685        1.69328
H         -4.51400       -0.60470        2.42795
H         -5.07416       -1.62834        1.06383
H         -3.81012       -2.23749        2.18201
H         -1.62577        3.26293        0.88692
H         -0.65104        1.79935        1.12556
H          0.81859        3.84591        0.92319
H          1.09778        2.70168       -0.39439
H         -0.36885        5.22488       -0.60379
H          0.79736        4.62477       -1.58132
H         -2.38813        1.55020       -0.56916
H         -1.54716        2.73852       -1.49907
C         -0.87132        2.61388        0.43373
C          0.36826        3.39960        0.02708
N         -1.46774        2.01156       -0.78342
N          0.00378        4.37143       -1.00568
N          3.69932       -0.35473        1.05037
C          3.31382        0.99976        0.69669
H          2.82511        0.99639       -0.28160
H          2.59867        1.38213        1.43322
H          4.17844        1.69077        0.66028
C          4.30532       -0.40856        2.36817
H          3.60845       -0.01405        3.11415
H          4.53209       -1.44672        2.62825
H          5.24430        0.17498        2.42682
C          4.56399       -0.94076        0.03758
H          4.78974       -1.97795        0.30277
H          4.05197       -0.94594       -0.92826
H          5.52033       -0.39384       -0.06618
