32
2msa2ma_13.log	Energy: -953976.1558603
S         -2.48997       -0.20214       -0.30130
O         -3.75924       -0.84735        0.01592
O         -1.48919       -0.23363        0.82644
O         -2.60006        1.20306       -0.80080
H         -1.34443        2.08936       -0.33223
C         -1.72738       -1.11809       -1.63428
H         -2.33655       -0.97369       -2.52711
H         -0.70990       -0.74850       -1.77839
H         -1.71747       -2.17470       -1.36123
S          2.35715        0.17713       -0.26774
O          1.92430        1.60164       -0.24597
O          1.53254       -0.67597       -1.14585
O          2.49438       -0.39449        1.10681
H          1.22814       -1.39436        1.47011
C          4.00807        0.20680       -0.94243
H          3.95339        0.63040       -1.94542
H          4.63071        0.82479       -0.29555
H          4.38163       -0.81678       -0.97591
N         -0.53909        2.64838        0.07558
H          0.36285        2.14131       -0.10386
C         -0.73814        2.81920        1.53219
H          0.13340        3.31045        1.96499
H         -1.63880        3.40728        1.70905
H         -0.86772        1.82510        1.95802
H         -0.48836        3.54397       -0.40431
N          0.35105       -1.97616        1.53403
H          0.19755       -2.25717        2.49931
C          0.43844       -3.13839        0.62263
H         -0.51883       -3.66080        0.60587
H          0.68322       -2.75132       -0.36683
H          1.22658       -3.81279        0.95856
H         -0.44194       -1.33090        1.24141
