25
2msa1ma_54.log	Energy: -893792.0617193
S          2.25839        0.07016        0.03341
O          1.45083       -0.37230        1.18127
O          2.37572        1.49494       -0.19953
O          1.75072       -0.68569       -1.26297
H          0.74897       -0.69869       -1.28062
C          3.86952       -0.65470        0.17896
H          4.34327       -0.19312        1.04571
H          3.75482       -1.72860        0.31959
H          4.42498       -0.42815       -0.73099
S         -1.74918       -1.09754       -0.04782
O         -1.98196       -2.52572       -0.01362
O         -0.86142       -0.57694       -1.10652
O         -1.19833       -0.58468        1.35301
H         -0.20743       -0.50073        1.33261
C         -3.27456       -0.20953       -0.12016
H         -3.75734       -0.50209       -1.05368
H         -3.87610       -0.52114        0.73442
H         -3.04986        0.86605       -0.09667
N         -2.21993        2.91598       -0.07858
H         -2.41138        3.38397       -0.95842
C         -0.77803        2.69657        0.07930
H         -0.17057        3.61039        0.05069
H         -0.59434        2.19471        1.03240
H         -0.42817        2.03002       -0.71153
H         -2.57070        3.52257        0.65536
