37
2msa1ma1eda_39.log	Energy: -1013374.3917933
S         -2.43357       -1.04661        0.15041
O         -2.92223        0.13678        0.88397
O         -1.96142       -2.15938        1.01451
O         -1.39335       -0.68322       -0.87002
C         -3.81971       -1.68481       -0.77467
H         -3.49008       -2.56101       -1.33313
H         -4.60160       -1.95382       -0.06416
H         -4.16423       -0.90444       -1.45359
S          2.95971        0.34078       -0.16928
O          2.57450        1.56111       -0.90522
O          3.19981       -0.85795       -0.98748
O          1.95425        0.04525        0.93103
C          4.48148        0.71327        0.68456
H          5.23536        0.94328       -0.06882
H          4.31284        1.57196        1.33430
H          4.77381       -0.16137        1.26578
N          0.66902       -2.26634        0.14607
H          0.26257       -1.84374       -0.69844
H          1.21249       -1.49181        0.58852
C          1.51245       -3.44315       -0.14177
H          1.87709       -3.85677        0.79843
H          0.91979       -4.19280       -0.66622
H          2.35302       -3.11477       -0.75238
H         -0.17131       -2.46437        0.72089
H         -1.47210        1.95101        1.54408
H         -0.17783        3.17638        1.46063
H         -2.38356        4.08254        0.75652
H         -1.19567        4.16835       -0.55068
H         -3.13479        1.96411       -0.33862
H         -3.20986        3.21506       -1.42493
H          0.53655        1.05901        0.55583
H         -0.73833        1.02245       -0.51818
C         -0.88353        2.58306        0.87559
C         -1.79868        3.47468        0.04829
N         -0.11155        1.66156        0.00903
N         -2.59111        2.65466       -0.85297
H          0.50851        2.13589       -0.65518
