40
2msa1dma1eda_134.log	Energy: -1038024.3847622
S         -0.15427        2.21552       -0.29707
O         -1.52764        1.72229        0.01213
O          0.37722        1.70314       -1.57349
O          0.76236        1.99597        0.86166
H          1.99175        1.01050        0.84189
C         -0.30052        3.98402       -0.46680
H         -0.98516        4.18900       -1.28999
H         -0.68741        4.38809        0.46865
H          0.69059        4.38492       -0.67964
S          2.41261       -1.02846        0.24932
O          3.44001       -1.96458        0.65890
O          2.77947        0.37707        0.87470
O          1.01467       -1.33183        0.56822
H         -1.48412        0.36838        1.04509
C          2.53115       -0.73895       -1.49978
H          1.88200        0.10411       -1.74496
H          3.57536       -0.52664       -1.72923
H          2.19121       -1.64589       -2.00095
N         -1.74983       -0.44183        1.64888
C         -3.19594       -0.32767        1.91065
C         -0.91106       -0.45736        2.86381
H         -1.59390       -1.31044        1.04822
H         -3.39757        0.59348        2.45957
H         -3.72100       -0.29792        0.95503
H         -3.53172       -1.18975        2.49033
H         -1.02905        0.49007        3.39210
H         -1.22104       -1.28526        3.50491
H          0.12453       -0.58986        2.55635
H         -2.38137       -3.19843       -2.01264
H         -3.51600       -2.45031       -0.87600
H         -3.01169       -0.90125       -2.71282
H         -2.38437       -0.24480       -1.20355
H         -0.83226       -1.20198       -3.42603
H         -0.48803       -0.04451       -2.30241
H         -1.53115       -3.51951        0.18722
H         -0.60688       -2.34702       -0.49158
C         -2.49038       -2.40148       -1.26217
C         -2.24975       -1.04988       -1.93445
N         -1.54675       -2.56275       -0.15053
N         -0.88283       -0.97206       -2.44122
