40
2msa1dma1eda_434.log	Energy: -1038012.0110913
S         -1.14533       -1.22308       -0.40650
O         -1.26720       -0.55273       -1.69923
O         -1.15426       -0.35195        0.77690
O          0.11156       -2.15690       -0.38135
H          0.99542       -1.64067       -0.56158
C         -2.43672       -2.41786       -0.22829
H         -3.36848       -1.83791       -0.20200
H         -2.40045       -3.09164       -1.08400
H         -2.27590       -2.95460        0.70657
S          3.15169       -0.34625        0.16521
O          3.82057        0.87451       -0.29340
O          2.23520       -0.92303       -0.87549
O          2.43215       -0.18342        1.46517
H          1.26067        0.94863        1.40616
C          4.39860       -1.58657        0.45156
H          4.91140       -1.76467       -0.49379
H          5.09230       -1.20440        1.20064
H          3.90846       -2.49406        0.80429
N         -4.68847       -0.04413        0.24965
C         -4.16693        1.14999       -0.40412
C         -4.52405       -0.00479        1.69623
H         -5.66984       -0.15633        0.01931
H         -3.09448        1.23249       -0.20411
H         -4.30072        1.06481       -1.48571
H         -4.64999        2.08048       -0.05795
H         -3.45433       -0.02305        1.92876
H         -4.96416        0.89267        2.16446
H         -4.98449       -0.88967        2.14523
H          0.81604        3.75423        0.58317
H          2.28475        2.73342        0.43746
H          1.22654        3.03441       -1.78657
H          1.14361        1.35326       -1.28750
H         -1.08099        3.18059       -1.54339
H         -1.04867        1.52630       -1.62649
H          0.47525        2.18390        2.22797
H         -0.29030        1.43662        0.94674
C          1.19785        2.76066        0.33611
C          0.75652        2.35339       -1.06773
N          0.61658        1.78464        1.30381
N         -0.70085        2.34005       -1.12779
