37
2msa1ma1eda_273.log	Energy: -1013359.0539873
S          2.19892       -0.93624        0.56446
O          3.46263       -0.65361       -0.11330
O          1.15381       -1.45837       -0.39656
O          1.64660        0.19544        1.35983
C          2.47215       -2.25744        1.73080
H          2.84515       -3.12141        1.18053
H          3.20984       -1.91570        2.45708
H          1.52544       -2.48701        2.22076
S         -2.24424       -0.95081       -0.47442
O         -2.21252       -1.27473       -1.89043
O         -2.13410        0.46810       -0.10655
O         -1.19614       -1.78899        0.33205
H         -0.20368       -1.63372        0.01961
C         -3.73862       -1.59015        0.24610
H         -4.56841       -1.06501       -0.22800
H         -3.78999       -2.65805        0.03594
H         -3.71967       -1.40071        1.31897
N         -1.58538        2.90661        1.61711
H         -1.94824        3.79456        1.94627
C         -1.12452        2.07746        2.73912
H         -1.90549        1.86419        3.47975
H         -0.74991        1.12755        2.34901
H         -0.29389        2.57799        3.24336
H         -2.33545        2.42510        1.12647
H          0.57058        3.35972       -1.80923
H          1.99473        3.16548       -0.75553
H          2.18734        2.01474       -3.05695
H          2.47833        0.96303       -1.67375
H          0.34767        0.72152       -3.55316
H          0.76212       -0.29705       -2.31289
H         -0.26552        2.63317        0.34658
H         -0.34511        1.38182       -0.74891
C          1.18130        2.63854       -1.25923
C          1.70667        1.53836       -2.19566
N          0.31500        1.99905       -0.24843
N          0.60241        0.66902       -2.57761
H          0.86090        1.37644        0.38877
