38
2msa1ma1tma_66.log	Energy: -1003280.1510000
S          0.18647       -1.68373        0.46458
O         -0.87007       -2.73481        0.57063
O          0.29554       -0.80936        1.63743
O         -0.03430       -0.90582       -0.81458
H         -0.25379        0.57320       -0.81460
C          1.73747       -2.52130        0.25808
H          1.90544       -3.12442        1.15106
H          1.67071       -3.15265       -0.62824
H          2.51041       -1.75030        0.14694
S         -1.60944        2.07182        0.02191
O         -2.02170        3.37976       -0.43683
O         -0.42650        1.58434       -0.89189
O         -2.63214        1.00935        0.08298
H         -2.73229       -0.57604       -0.51572
C         -0.87431        2.19550        1.63321
H         -0.08722        2.94803        1.57841
H         -1.65893        2.50815        2.32316
H         -0.47332        1.21350        1.89840
N         -2.86443       -1.57179       -0.79647
H         -2.56868       -1.64770       -1.76807
C         -4.26066       -2.00432       -0.58308
H         -4.36641       -3.05362       -0.85772
H         -4.49734       -1.87783        0.47263
H         -4.93131       -1.38844       -1.18194
H         -2.16458       -2.12836       -0.22810
N          3.59932        0.19070       -0.26801
C          5.03659        0.23447       -0.07105
H          5.26958        0.07104        0.98543
H          5.51706       -0.55771       -0.65369
H          5.47768        1.20308       -0.37612
C          3.24744        0.34652       -1.66990
H          3.74664       -0.42693       -2.26237
H          2.16769        0.22727       -1.79290
H          3.54135        1.33406       -2.07279
C          2.92226        1.17843        0.55675
H          1.84333        1.10251        0.40957
H          3.13141        0.98573        1.61286
H          3.23651        2.21205        0.31530
