28
2msa1dma_72.log	Energy: -918451.3845429
S         -1.59243       -1.40237       -0.07478
O         -1.89796       -2.79568       -0.30397
O         -0.67761       -0.72680       -1.02024
O         -0.99836       -1.20748        1.38530
H         -0.05604       -0.89040        1.34649
C         -3.08315       -0.45494        0.01931
H         -3.59101       -0.58354       -0.93774
H         -3.68471       -0.87342        0.82692
H         -2.83007        0.59828        0.19924
S          2.43915       -0.15422        0.08080
O          3.82263       -0.47167        0.33087
O          1.47368       -0.24431        1.18603
O          1.93896       -1.07518       -1.10797
H          0.94397       -1.05360       -1.16261
C          2.31157        1.48474       -0.59983
H          2.62763        2.18384        0.17525
H          2.97078        1.54153       -1.46585
H          1.27290        1.66460       -0.87917
N         -1.94180        2.62735        0.20865
C         -1.47813        2.69008       -1.16994
C         -0.85427        2.48967        1.16671
H         -2.48846        3.45273        0.42678
H         -1.05794        1.71791       -1.45089
H         -2.32085        2.89162       -1.83638
H         -0.71000        3.46524       -1.33906
H         -0.34946        1.53135        1.01307
H         -0.09519        3.28731        1.08550
H         -1.25330        2.49221        2.18385
