35
2msa1ma1dma_227.log	Energy: -978618.8108025
S         -1.26532       -1.66958       -0.34704
O         -2.38817       -2.52126       -0.67021
O         -1.14512       -0.40929       -1.11022
O          0.04854       -2.51502       -0.54633
H          0.87509       -2.04110       -0.19101
C         -1.26297       -1.24421        1.37372
H         -2.14210       -0.61251        1.55125
H         -1.30597       -2.17290        1.94287
H         -0.34812       -0.68306        1.57966
S          2.46102        0.06349        0.42268
O          2.11443       -1.38651        0.46694
O          1.37497        0.92515        0.93169
O          2.93151        0.49056       -0.93061
H          1.65064        0.95171       -1.83102
C          3.86532        0.23580        1.50244
H          3.56084       -0.07229        2.50272
H          4.66261       -0.40497        1.12632
H          4.17088        1.28211        1.49534
N          0.70026        1.25536       -2.18642
H          0.67727        1.21275       -3.20248
C          0.38276        2.60717       -1.66720
H         -0.65457        2.85179       -1.89585
H          0.53525        2.57657       -0.58815
H          1.05666        3.33569       -2.11785
H          0.01819        0.55881       -1.81050
N         -3.18895        1.42834        1.38062
C         -3.91141        1.35957        0.11793
C         -1.92992        2.14913        1.27019
H         -3.77292        1.85711        2.08961
H         -3.32320        0.77983       -0.59983
H         -4.86536        0.84673        0.26425
H         -4.11040        2.35180       -0.32544
H         -1.24405        1.57865        0.63649
H         -2.04111        3.16039        0.83796
H         -1.46188        2.24056        2.25359
