31
2msa1tma_03.log	Energy: -943134.6506052
S         -1.37264       -1.47955        0.08202
O         -0.17254       -2.07857        0.72625
O         -0.98858       -0.53580       -1.01797
O         -2.32586       -0.86696        1.02362
C         -2.20488       -2.84306       -0.70864
H         -1.52013       -3.29677       -1.42504
H         -2.48241       -3.55914        0.06498
H         -3.09161       -2.45527       -1.21018
N         -1.37247        1.99758       -0.07540
C         -0.67110        3.05273       -0.84609
H          0.39562        2.97546       -0.64181
H         -0.85631        2.88939       -1.90851
H         -1.05927        4.02856       -0.54540
C         -2.83047        1.98039       -0.35565
H         -2.97899        1.84905       -1.42776
H         -3.26500        1.13622        0.18046
H         -3.26803        2.92500       -0.02512
C         -1.10620        2.10201        1.38550
H         -1.59004        1.25477        1.87258
H         -0.02920        2.05377        1.53825
H         -1.51466        3.04835        1.74798
H         -1.01462        1.06306       -0.40075
S          2.51326        0.09507        0.04559
O          3.91064        0.42176        0.23746
O          1.52520        1.17480        0.12567
O          2.15282       -1.03037        1.08905
H          1.20672       -1.37292        0.97998
C          2.28939       -0.70904       -1.52716
H          2.61190       -0.00174       -2.29241
H          2.91153       -1.60382       -1.54439
H          1.22803       -0.94237       -1.63708
