28
2msa1dma_79.log	Energy: -918446.7395860
S         -2.29991       -0.46276        0.14482
O         -2.66018        0.93027        0.35396
O         -1.57340       -1.17109        1.18956
O         -1.49886       -0.59056       -1.22685
H         -0.54526       -0.82230       -1.07183
C         -3.77017       -1.36511       -0.27949
H         -4.44184       -1.29888        0.57710
H         -4.21848       -0.89681       -1.15547
H         -3.49581       -2.40006       -0.48036
S          2.13615       -1.03926       -0.00138
O          2.95354       -2.19619        0.31429
O          1.07998       -1.18617       -1.00058
O          3.13714        0.12296       -0.53504
H          3.97672       -0.29819       -0.77097
C          1.47812       -0.25296        1.43113
H          0.70106       -0.91325        1.82042
H          2.29064       -0.11149        2.14330
H          1.02939        0.69571        1.08997
N          0.11911        2.32858        0.09650
C          0.37528        2.41688       -1.33398
C          0.61885        3.47900        0.83159
H         -0.87789        2.21426        0.25838
H          1.45225        2.34001       -1.51839
H         -0.11428        1.58391       -1.84332
H          0.01572        3.35906       -1.78145
H          1.71084        3.52129        0.74431
H          0.21693        4.43998        0.46804
H          0.36813        3.37856        1.89153
