43
2msa1eda1tma_163.log	Energy: -1062675.7903365
S          0.34415        0.85289        2.22387
O          1.04205        1.04167        3.47640
O         -1.16701        1.23991        2.45575
O          0.40482       -0.49024        1.61534
H         -0.71686       -1.56385        0.88882
C          0.89885        2.01839        1.00720
H          0.82006        3.01295        1.44624
H          1.93107        1.77470        0.73875
H          0.25899        1.91277        0.12830
S         -2.33149        0.69093       -0.98263
O         -3.05745       -0.60205       -0.82834
O         -0.93580        0.50868       -1.43586
O         -2.42602        1.54337        0.23920
H         -1.68472        1.30387        1.58358
C         -3.20521        1.59163       -2.24597
H         -3.16885        1.00575       -3.16447
H         -4.23417        1.72938       -1.91411
H         -2.71035        2.55356       -2.38013
H         -0.94093       -3.28661       -1.50117
H         -0.07516       -1.74130       -1.37321
H          1.51347       -3.68157       -1.09532
H          1.40818       -2.71515        0.37945
H          0.20343       -5.34521       -0.03278
H          1.04264       -4.77947        1.25280
H         -2.08282       -1.75138       -0.06964
H         -1.44531       -3.06956        0.85219
C         -0.35161       -2.64977       -0.83556
C          0.84879       -3.39543       -0.27000
N         -1.22918       -2.24377        0.28949
N          0.37553       -4.52307        0.53549
N          3.10513        0.96503       -1.20318
C          4.53784        0.96141       -1.43104
H          4.89769        1.98742       -1.55247
H          5.04953        0.51949       -0.57089
H          4.82112        0.38821       -2.33576
C          2.59587       -0.37309       -0.96846
H          3.10180       -0.81712       -0.10532
H          1.52746       -0.31674       -0.74376
H          2.74079       -1.04084       -1.84204
C          2.39146        1.60739       -2.29470
H          1.31620        1.59118       -2.09518
H          2.71875        2.64724       -2.39135
H          2.56446        1.09994       -3.26373
