42
2msa2eda_395.log	Energy: -1072751.5576715
S         -2.78769        0.39897        0.45062
O         -2.73081        1.16658       -0.80148
O         -1.87958        0.93626        1.49999
O         -2.58921       -1.08027        0.24655
C         -4.44427        0.51902        1.09480
H         -4.65556        1.57414        1.26931
H         -5.12749        0.10620        0.35254
H         -4.49332       -0.04563        2.02571
S          0.52907       -2.05021       -0.98083
O          1.87214       -2.41204       -0.55532
O          0.34196       -0.72066       -1.57645
O         -0.43419       -2.25646        0.22473
H         -1.33865       -1.69491        0.20234
C         -0.04698       -3.23694       -2.17348
H          0.58688       -3.15339       -3.05669
H          0.03524       -4.22832       -1.72829
H         -1.08326       -2.99838       -2.41468
H          1.19331        3.40380        0.35273
H          2.02583        1.81821        0.41414
H          2.96986        3.19880       -1.41016
H          2.15927        1.76507       -2.04233
H          1.11948        4.49833       -2.16464
H          1.21688        3.37891       -3.35526
H         -0.46919        1.65863        0.50429
H         -0.50584        2.28396       -1.04146
C          1.37764        2.46635       -0.18052
C          1.98819        2.72754       -1.54954
N          0.07811        1.78415       -0.36339
N          1.05537        3.50613       -2.36406
H          0.21691        0.82717       -0.73674
H          3.34655       -1.44409        2.28982
H          4.21532        0.01739        2.77424
H          1.99375       -0.09690        3.79871
H          2.16620        1.32853        2.76376
H          0.85079       -1.14167        1.85416
H          0.06385        0.21055        2.29181
H          4.51220       -0.17067        0.48976
H          2.94659       -0.48075        0.19376
C          3.37331       -0.34752        2.17619
C          2.08592        0.23425        2.75136
N          3.57040        0.06482        0.78497
N          0.94569       -0.13206        1.91955
