42
2msa2eda_130.log	Energy: -1072766.5538426
S         -2.15885       -0.84559       -0.92272
O         -2.20877       -0.45214        0.52332
O         -1.63863       -2.23779       -1.07753
O         -1.45841        0.15015       -1.74538
C         -3.85404       -0.91526       -1.46980
H         -4.38831       -1.63540       -0.85037
H         -4.28542        0.08071       -1.36553
H         -3.85627       -1.22487       -2.51507
S          2.55586        0.61077       -1.09469
O          3.96829        0.88548       -1.32852
O          1.78636        1.74487       -0.50536
O          2.34026       -0.63547       -0.26008
H          1.20340       -1.68873        0.05456
C          1.77863        0.25899       -2.66146
H          1.92032        1.13427       -3.29647
H          2.27297       -0.60920       -3.09901
H          0.71444        0.07828       -2.49269
H         -0.93922        2.47072        2.80326
H          0.40571        3.17414        1.85896
H         -1.58937        4.27151        1.12581
H         -1.13476        3.14771       -0.16207
H         -3.53828        3.12455        0.52714
H         -2.86242        1.64711        0.72878
H          0.44645        0.68064        2.00048
H         -0.92147        0.65104        1.03556
C         -0.50562        2.57434        1.80599
C         -1.52140        3.21047        0.86722
N         -0.10663        1.23071        1.31433
N         -2.83995        2.61182        1.05286
H          0.52983        1.35097        0.48309
H          2.11190       -2.79072        2.61807
H          0.89004       -2.19839        3.74338
H         -0.27236       -3.39215        2.03866
H         -0.63881       -1.68263        1.80068
H          1.15852       -3.34872        0.18195
H         -0.24713       -2.51576       -0.27705
H          2.32720       -0.41951        3.35780
H          2.27039       -0.56328        1.72401
C          1.28833       -2.06794        2.73263
C          0.16154       -2.42548        1.77205
N          1.72490       -0.67841        2.58356
N          0.60354       -2.51225        0.35256
