43
2msa1eda1tma_265.log	Energy: -1062665.4742063
S         -2.76813       -1.38139       -0.27509
O         -2.77348       -0.58456       -1.49666
O         -3.00592       -0.69687        0.98856
O         -1.44715       -2.24823       -0.18903
H         -0.62537       -1.65367       -0.08197
C         -3.94159       -2.70640       -0.44962
H         -4.92505       -2.24172       -0.52669
H         -3.70625       -3.26268       -1.35635
H         -3.88325       -3.34238        0.43312
S          1.17384       -0.05073        1.19390
O          1.99508       -0.96274        2.00308
O          0.58352       -0.72866       -0.01632
O          1.93197        1.15662        0.71776
H          2.41169        0.77147       -0.76672
C         -0.18164        0.54626        2.16523
H         -0.78194       -0.31043        2.47365
H          0.23634        1.06542        3.02845
H         -0.76496        1.21464        1.52062
H          4.59007       -0.40721       -2.45418
H          4.69555        1.08653       -1.48282
H          5.64879       -0.95727       -0.29193
H          4.33511       -0.17401        0.59342
H          4.29959       -2.80627       -0.48755
H          3.21421       -2.06385        0.52416
H          2.43379        0.63953       -2.47559
H          2.36399       -0.71329       -1.48625
C          4.25192        0.09045       -1.54167
C          4.57232       -0.75592       -0.30250
N          2.77541        0.22776       -1.61097
N          3.76100       -1.96604       -0.32858
N         -1.30209        2.60597       -0.15331
C         -0.67101        3.80326        0.36632
H         -1.12317        4.07230        1.32633
H          0.39442        3.61330        0.53024
H         -0.77595        4.66936       -0.31715
C         -0.70033        2.18928       -1.40614
H          0.37012        2.02847       -1.24450
H         -1.15234        1.25018       -1.73462
H         -0.82738        2.94908       -2.20423
C         -2.74063        2.75815       -0.28168
H         -3.17313        1.82391       -0.64622
H         -3.17790        2.97986        0.69660
H         -3.01489        3.57401       -0.97947
