40
2msa1dma1eda_31.log	Energy: -1038036.2068963
S         -2.71179       -0.79406       -0.16973
O         -2.18291       -1.89245       -0.99175
O         -2.78455        0.52126       -0.86899
O         -1.98078       -0.65611        1.13240
C         -4.39717       -1.20798        0.24636
H         -4.96165       -1.28489       -0.68317
H         -4.39225       -2.16285        0.77225
H         -4.80259       -0.41982        0.88092
S          2.31487        1.09495        0.03978
O          2.86000        0.09225        0.97915
O          1.63903        2.24106        0.70694
O          1.41801        0.47809       -0.98411
C          3.70231        1.78333       -0.84449
H          4.36558        2.25221       -0.11731
H          4.21252        0.97121       -1.36298
H          3.32817        2.51867       -1.55687
N         -1.03256        2.35995        0.05876
C         -1.02696        3.41939       -0.96859
C         -1.71827        2.72513        1.31505
H         -1.52860        1.52650       -0.33636
H         -0.52913        4.30498       -0.57096
H         -0.48511        3.04745       -1.83796
H         -2.05596        3.65191       -1.24672
H         -1.18618        3.55046        1.79051
H         -2.74612        3.01233        1.08827
H         -1.72164        1.84723        1.96150
H         -0.04105        2.12657        0.27946
H          0.47725       -3.76373        0.75346
H         -0.08724       -3.12756       -0.81660
H          2.19363       -4.20797       -0.94577
H          2.22504       -2.50774       -1.42290
H          3.90616       -3.48889        0.35994
H          3.30177       -1.97847        0.59061
H         -0.44860       -1.47996        0.89953
H          1.19483       -1.52815        1.30039
C          0.66969       -3.03423       -0.03602
C          2.08935       -3.18683       -0.56804
N          0.51319       -1.68142        0.55123
N          3.05438       -2.96280        0.50496
H          0.72278       -0.94939       -0.15935
