42
2msa2eda_145.log	Energy: -1072764.4492826
S         -2.50293       -1.20676       -0.62116
O         -3.93124       -1.50450       -0.69268
O         -1.71151       -2.29455        0.06106
O         -2.16161        0.11955       -0.03669
H         -0.82232       -0.08348        1.30070
C         -1.87201       -1.16670       -2.29427
H         -2.05737       -2.13999       -2.75016
H         -2.41116       -0.38827       -2.83628
H         -0.80380       -0.94600       -2.24959
S          2.53134       -0.14025       -0.73596
O          2.87365        1.13366       -0.04193
O          1.11350       -0.18978       -1.15203
O          2.92080       -1.34448        0.05167
H          1.47214       -2.12007        0.58654
C          3.53525       -0.17659       -2.21000
H          3.27276        0.68622       -2.82265
H          4.58229       -0.13177       -1.90997
H          3.32564       -1.10518       -2.74128
H          0.19023        3.16370       -1.25395
H         -0.53674        1.57039       -0.90871
H         -2.28655        3.35994       -0.95400
H         -2.16407        2.57542        0.61164
H         -1.16605        5.25341       -0.05331
H         -2.08345        4.79162        1.21475
H          1.48094        2.06707        0.40295
H          0.59126        3.33352        1.13889
C         -0.34849        2.56701       -0.51138
C         -1.63857        3.24290       -0.07684
N          0.53792        2.42445        0.67234
N         -1.32481        4.50148        0.60946
H         -0.27740       -2.41830        2.96869
H          1.50094       -2.52809        3.00439
H          0.98070       -0.29958        3.65012
H          1.64879       -0.22785        2.03133
H         -1.13132        0.20417        2.86654
H          0.13373        1.71981        1.35168
H          0.70562       -3.53368        1.03960
H         -0.27500       -2.26803        0.58873
C          0.64665       -2.06369        2.50428
C          0.76964       -0.54277        2.60418
N          0.64574       -2.51852        1.08894
N         -0.38856        0.23503        2.17586
