42
2msa2eda_572.log	Energy: -1072741.9567327
S          0.44893        1.16999        1.14776
O          1.15917        0.15671        1.94396
O          0.27007        0.73971       -0.28714
O          1.12829        2.50508        1.14600
H          2.04455        2.47980       -0.14453
C         -1.17449        1.39277        1.81900
H         -1.66193        0.41555        1.80598
H         -1.06364        1.76439        2.83825
H         -1.72584        2.09540        1.18642
S         -0.33462       -2.70979        0.02963
O         -0.55346       -3.93381       -0.71410
O         -1.46214       -2.02468        0.65506
O          0.39478       -1.68998       -0.94931
H          0.26533       -0.72223       -0.63969
C          0.89369       -2.99323        1.28469
H          0.46137       -3.69191        2.00229
H          1.77146       -3.43042        0.80827
H          1.11741       -2.03232        1.75351
H         -4.65554        1.83005       -1.87123
H         -3.03866        2.49875       -2.14467
H         -2.99951        0.04543       -2.25073
H         -2.01336        0.63909       -0.91220
H         -4.64355       -0.60530       -0.66079
H         -3.23033       -1.00496        0.06772
H         -4.16469        3.49120       -0.19763
H         -4.11494        2.01582        0.52797
C         -3.64629        1.92824       -1.43286
C         -3.04274        0.53674       -1.26603
N         -3.64853        2.62011       -0.14531
N         -3.78963       -0.22503       -0.26581
H          4.71572        1.80745       -1.27448
H          4.21318        1.92634        0.43320
H          4.51829       -0.46997       -0.35427
H          2.88779       -0.13662        0.23440
H          3.66040       -0.57995       -2.53208
H          2.25987       -0.96106       -1.75224
H          2.89871        3.20519       -1.42788
H          2.20574        1.69092       -1.64499
C          3.92058        1.58033       -0.55960
C          3.59549        0.08164       -0.57046
N          2.69551        2.31577       -0.97966
N          2.98438       -0.25612       -1.85108
