38
2msa2dma_07.log	Energy: -1003302.9487014
S         -2.84661       -0.04775       -0.15007
O         -1.96615       -0.40064        1.01201
O         -2.95929       -1.14200       -1.12202
O         -2.43122        1.26027       -0.73715
C         -4.46980        0.22772        0.53824
H         -4.80894       -0.70461        0.98997
H         -4.40190        1.01680        1.28714
H         -5.13394        0.52318       -0.27436
S          2.84674       -0.04760       -0.15020
O          2.96004       -1.14129       -1.12269
O          1.96666       -0.40165        1.01185
O          2.43055        1.26042       -0.73664
C          4.46980        0.22848        0.53820
H          4.80940       -0.70387        0.98954
H          5.13380        0.52461       -0.27426
H          4.40148        1.01721        1.28745
N         -0.00000       -2.13557        0.25439
C         -0.00024       -3.41082        0.99301
C          0.00024       -2.29161       -1.21884
H         -0.82619       -1.55812        0.54135
H          0.89364       -3.97879        0.73007
H         -0.00046       -3.19958        2.06261
H         -0.89412       -3.97863        0.72971
H          0.90667       -2.81696       -1.51880
H         -0.90614       -2.81686       -1.51912
H          0.00038       -1.30155       -1.67259
H          0.82625       -1.55822        0.54154
N         -0.00042        2.22037       -0.00932
C          0.00088        2.21731        1.46898
C         -0.00122        3.56859       -0.61130
H          0.86089        1.72126       -0.33849
H         -0.89647        2.72480        1.82635
H          0.00238        1.18213        1.80527
H          0.89778        2.72676        1.82474
H         -0.89694        4.10395       -0.29295
H          0.89551        4.10386       -0.29560
H         -0.00288        3.46469       -1.69613
H         -0.86209        1.72102       -0.33724
