35
2msa1ma1dma_241.log	Energy: -978616.9290396
S         -2.13603        1.14246       -0.25705
O         -2.50306        0.84543        1.16040
O         -2.57616        0.09733       -1.19086
O         -0.67510        1.46207       -0.38967
H          0.25136        0.46222       -0.89308
C         -2.97511        2.65948       -0.66209
H         -4.04521        2.49116       -0.54107
H         -2.62538        3.43616        0.01775
H         -2.73667        2.90940       -1.69588
S          1.22951       -1.47632       -0.44833
O          0.99738       -0.16586       -1.26493
O          0.64251       -2.62650       -1.11843
O          0.80510       -1.26901        0.95319
H         -0.79520       -1.61857        1.41636
C          2.99538       -1.57285       -0.47619
H          3.30773       -1.63928       -1.51877
H          3.37457       -0.66365        0.00918
H          3.27498       -2.47644        0.06688
N         -1.82309       -1.71720        1.57470
H         -1.97745       -2.06625        2.51739
C         -2.41509       -2.60603        0.54190
H         -3.47982       -2.72577        0.74062
H         -2.27808       -2.12566       -0.42658
H         -1.90605       -3.56894        0.55995
H         -2.20177       -0.73079        1.49716
N          3.47764        1.43860        0.77836
C          2.33093        1.74554        1.62791
C          3.47153        2.20624       -0.46079
H          4.33305        1.63208        1.28856
H          1.40592        1.48783        1.10589
H          2.37776        1.14470        2.53985
H          2.27322        2.81194        1.90549
H          2.61413        1.89863       -1.06667
H          3.40210        3.29557       -0.30083
H          4.38200        1.99558       -1.02969
