40
2msa1dma1eda_323.log	Energy: -1038016.5061236
S         -2.54551       -0.27899       -0.53177
O         -2.39728        1.16420       -0.86998
O         -2.83403       -0.55845        0.87648
O         -1.35387       -1.05055       -1.04845
C         -3.92427       -0.86544       -1.49641
H         -4.80774       -0.30828       -1.18364
H         -3.71060       -0.69047       -2.55068
H         -4.05086       -1.92937       -1.29588
S          1.81464       -1.77805       -0.03402
O          2.72632       -1.68748        1.08864
O          1.82996       -0.69401       -1.02909
O          0.36321       -1.97332        0.50908
H         -0.37427       -1.59065       -0.12140
C          2.12649       -3.29605       -0.90915
H          3.13082       -3.23316       -1.32908
H          2.05634       -4.11583       -0.19436
H          1.38100       -3.39732       -1.69818
N         -0.36645        0.73732        2.21825
C         -1.20312        1.85445        2.62543
C          0.58424        0.33145        3.24065
H         -0.97079       -0.04112        1.97029
H         -0.58799        2.75799        2.73426
H         -1.95811        2.03814        1.85675
H         -1.71820        1.68711        3.58651
H          1.31601        1.13332        3.40176
H          0.11009        0.11427        4.21352
H          1.12877       -0.55422        2.90625
H          0.34252        3.37192       -0.16257
H          0.74038        1.87155        0.71733
H          2.81669        3.24496        0.22430
H          2.85438        1.67466       -0.58687
H          2.32181        4.25069       -1.86878
H          3.34310        3.06111       -2.33218
H         -0.77915        1.53279       -1.17827
H          0.50772        2.03432       -2.19482
C          0.88597        2.42391       -0.21848
C          2.35012        2.64507       -0.56756
N          0.25922        1.61550       -1.29434
N          2.44448        3.24417       -1.90258
H          0.65015        0.65779       -1.27097
