26
2msa2a_08.log	Energy: -904652.6096779
S         -1.94792       -0.60771       -0.04723
O         -1.13568        0.16626        0.96436
O         -1.26281       -1.82729       -0.48701
O         -2.39704        0.29418       -1.14135
C         -3.42444       -1.09491        0.82330
H         -3.12983       -1.73627        1.65400
H         -3.92760       -0.19746        1.18248
H         -4.05825       -1.63944        0.12306
S          2.26932       -0.32834        0.00632
O          3.64925       -0.09042        0.36969
O          1.73765        0.35552       -1.18240
O          1.38764        0.05214        1.26071
H          0.38295        0.01612        1.08391
C          1.97292       -2.06546       -0.20721
H          2.55807       -2.38361       -1.07087
H          2.30846       -2.57372        0.69673
H          0.90254       -2.20807       -0.38004
N         -0.38264        2.10126       -1.53555
H          0.45905        1.49640       -1.54017
H         -0.36441        2.64014       -0.62398
H         -0.39276        2.71517       -2.34380
H         -1.21944        1.46955       -1.51970
N         -0.31024        3.01317        1.10794
H          0.62569        2.88418        1.48287
H         -0.85778        2.20400        1.40452
H         -0.70195        3.84794        1.53023
