43
2msa1eda1tma_58.log	Energy: -1062688.5769777
S          1.63986       -1.76582       -0.34073
O          1.38379       -3.07712        0.28134
O          2.58282       -0.90226        0.43850
O          0.39525       -1.01926       -0.66409
C          2.45569       -2.07378       -1.89946
H          3.39902       -2.58229       -1.69803
H          1.80383       -2.70177       -2.50726
H          2.62590       -1.11581       -2.39212
S         -1.89175        1.66368       -0.56428
O         -2.45973        0.49451       -1.26487
O         -0.76110        2.32699       -1.24089
O         -1.56098        1.32492        0.86860
C         -3.20094        2.87797       -0.47039
H         -3.47683        3.14900       -1.49001
H         -4.05098        2.43524        0.04985
H         -2.82851        3.74880        0.06925
H          1.75653        3.49307        0.66750
H          1.75972        2.67733        2.24778
H          4.06877        3.14030        1.29013
H          3.77474        1.46003        1.75049
H          4.73558        2.10311       -0.61053
H          3.68716        0.85107       -0.45123
H          0.20975        1.45982        0.96067
H          1.06457        1.61604       -0.39696
C          2.01706        2.57115        1.19100
C          3.50040        2.24279        1.02855
N          1.19050        1.48600        0.61402
N          3.78900        1.85865       -0.34940
H          1.63156        0.55128        0.73474
N         -2.02786       -1.73715        0.60899
C         -3.43062       -1.30112        0.81878
H         -3.41080       -0.34232        1.33569
H         -3.90529       -1.17359       -0.15188
H         -3.94220       -2.05946        1.41614
C         -1.95329       -3.01548       -0.14458
H         -2.41126       -2.86102       -1.12173
H         -0.90357       -3.28871       -0.25427
H         -2.49420       -3.78272        0.41408
C         -1.29372       -1.81229        1.89878
H         -0.29326       -2.20129        1.71042
H         -1.24976       -0.80510        2.31333
H         -1.83888       -2.48156        2.56831
H         -1.55072       -1.02541        0.02544
