42
2msa2eda_51.log	Energy: -1072770.3070834
S         -2.79500       -0.20199       -0.60788
O         -2.61083        1.18711       -0.10716
O         -3.20087       -1.16400        0.43941
O         -1.58613       -0.66102       -1.36135
C         -4.11563       -0.13051       -1.80188
H         -4.26398       -1.13093       -2.20847
H         -5.01318        0.21541       -1.28900
H         -3.82497        0.56716       -2.58709
S          2.94198       -0.23969       -0.64530
O          2.39790       -0.75270        0.66092
O          2.39079        1.11015       -0.93867
O          2.76255       -1.22639       -1.72260
C          4.69391       -0.01680       -0.40124
H          4.84269        0.68895        0.41603
H          5.13281       -0.98579       -0.16373
H          5.11106        0.37671       -1.32859
H         -0.36302        2.41759        2.29264
H          1.37353        2.21080        1.95566
H          0.67196        4.51859        1.44003
H          1.19228        3.69336       -0.02240
H         -1.04526        3.50341       -0.72764
H         -1.64103        4.02355        0.70300
H          0.03388        0.37312        1.12688
H         -0.85597        1.38569        0.17915
C          0.39661        2.40352        1.50482
C          0.40079        3.72659        0.73342
N          0.08527        1.27339        0.60369
N         -0.84455        4.08444        0.07808
H          0.82735        1.19560       -0.12278
H         -1.41347       -3.17137        0.44885
H          0.09702       -4.07473        0.72561
H         -0.72595       -3.13586        2.81973
H          0.84146       -2.42815        2.38639
H         -1.72891       -1.09554        1.84692
H         -0.70621       -0.73816        3.08668
H         -0.37349       -1.55515       -0.70321
H          1.12029       -1.70880        0.12434
C         -0.36044       -3.08354        0.72858
C         -0.21860       -2.46414        2.11313
N          0.31379       -2.23927       -0.29234
N         -0.74737       -1.09940        2.13890
H          0.70239       -2.76845       -1.07182
