29
2msa1a1ma_36.log	Energy: -929309.3628063
S          2.57041        0.34795       -0.12392
O          3.78034        1.01070       -0.55837
O          1.61260        0.24890       -1.37277
O          1.83007        0.92802        1.00801
H          0.24073        1.48642        1.44107
C          2.91181       -1.34734        0.27970
H          3.41069       -1.79756       -0.57852
H          3.56821       -1.34286        1.15072
H          1.96142       -1.84205        0.49639
S         -1.28968       -1.35006        0.11183
O         -2.01192       -0.71135        1.24494
O         -0.20126       -2.25244        0.49883
O         -0.83610       -0.29979       -0.87368
H          0.66352       -0.02643       -1.13146
C         -2.51136       -2.31013       -0.76185
H         -2.89268       -3.06645       -0.07555
H         -3.31040       -1.64234       -1.08403
H         -2.02576       -2.77633       -1.61919
N         -0.75269        1.68889        1.65908
H         -1.24673        0.77186        1.73585
H         -1.19535        2.18237        0.82176
H         -0.82749        2.23002        2.51447
N         -2.00120        2.42293       -0.68824
H         -1.86982        3.25544       -1.25279
C         -3.42596        2.10964       -0.52545
H         -3.94855        1.95147       -1.47655
H         -3.51350        1.19805        0.07269
H         -3.92378        2.92183        0.01125
H         -1.54184        1.64226       -1.15871
