38
2msa2dma_146.log	Energy: -1003282.2371050
S          2.65066       -0.01861       -0.21822
O          2.71576       -1.27222        0.58623
O          2.68272        1.22103        0.56370
O          1.46644       -0.08448       -1.15092
H          0.42506        1.00217       -1.08661
C          4.09064       -0.03353       -1.26675
H          4.97067       -0.02223       -0.62321
H          4.06756       -0.93737       -1.87533
H          4.06032        0.85838       -1.89289
S         -1.02104        1.76896        0.35310
O         -2.35287        2.31544        0.17317
O         -0.34053        1.68667       -1.05807
O         -0.90936        0.46257        1.02424
H         -0.32239       -1.13719        0.62160
C         -0.00784        2.91585        1.24966
H         -0.03891        3.86912        0.72201
H         -0.43456        3.01172        2.24864
H          1.00512        2.50625        1.27819
N         -3.78800       -0.42256       -0.90494
C         -2.77223       -0.68655       -1.90490
C         -3.74164       -1.35365        0.20242
H         -3.68600        0.52742       -0.56081
H         -2.97361       -1.64988       -2.39012
H         -2.79542        0.09027       -2.67203
H         -1.74558       -0.72007       -1.49665
H         -3.95869       -2.36654       -0.16004
H         -2.76363       -1.37021        0.72015
H         -4.50351       -1.09340        0.94171
N          0.13100       -2.06600        0.71485
C         -0.16263       -2.89683       -0.47088
C         -0.27760       -2.65841        2.00389
H          1.16014       -1.84413        0.72799
H         -1.23976       -3.05343       -0.54688
H          0.20237       -2.36470       -1.34942
H          0.35241       -3.85351       -0.36987
H         -1.35457       -2.83413        1.99586
H          0.25410       -3.59930        2.15302
H         -0.02550       -1.95824        2.79987
