35
2msa1ma1dma_310.log	Energy: -978610.5775143
S         -2.10686       -0.87828        0.36893
O         -1.49295       -1.02871        1.68956
O         -1.85383        0.42615       -0.29737
O         -3.60654       -1.14138        0.38758
H         -4.33279        0.04142        0.11633
C         -1.44081       -2.14791       -0.68692
H         -0.36572       -1.97905       -0.78341
H         -1.64299       -3.11233       -0.22029
H         -1.92814       -2.07789       -1.65954
S          2.42977       -0.22385       -0.35440
O          1.77954       -1.32746       -1.04392
O          3.04741        0.83380       -1.15956
O          3.53352       -0.79756        0.62626
H          4.46590       -0.40545        0.37530
C          1.27378        0.49851        0.77861
H          0.43340        0.88061        0.19455
H          0.90875       -0.27600        1.45447
H          1.77974        1.29721        1.32111
N          5.77097        0.32609       -0.09131
H          6.64175       -0.18600        0.00656
C          5.84160        1.63881        0.56334
H          6.64920        2.27216        0.17967
H          4.88900        2.14775        0.40304
H          5.98363        1.49666        1.63701
H          5.58178        0.44251       -1.08400
N         -4.85927        1.00719       -0.10431
C         -4.61103        1.34959       -1.52258
C         -4.35130        2.02215        0.84673
H         -5.85395        0.85361        0.05036
H         -3.52947        1.39467       -1.65848
H         -5.02241        0.55968       -2.15192
H         -5.07741        2.30676       -1.76655
H         -3.27521        2.10574        0.68829
H         -4.84695        2.98053        0.67624
H         -4.53723        1.67294        1.86286
