42
2msa2eda_608.log	Energy: -1072735.9797866
S          0.96961       -2.16684       -0.34921
O          0.46848       -3.51193       -0.14256
O          0.77831       -1.19128        0.73609
O          0.31412       -1.57952       -1.66070
H         -0.01615       -0.63751       -1.51740
C          2.69194       -2.22047       -0.77689
H          3.24373       -2.48157        0.12708
H          2.81471       -2.98044       -1.54871
H          2.97641       -1.23241       -1.14657
S         -1.03170        1.97401       -0.56189
O         -0.27646        3.04047       -1.20845
O         -0.88507        0.62872       -1.18792
O         -2.49612        2.27010       -0.38523
H         -3.32390        1.16311        0.21704
C         -0.41338        1.82360        1.11280
H          0.66132        1.65134        1.07688
H         -0.62727        2.76217        1.62542
H         -0.90487        0.98123        1.60257
H         -4.87527       -1.41857        0.57984
H         -4.33097       -0.69419       -0.95587
H         -2.85383       -2.64459       -0.13036
H         -2.01644       -1.12313       -0.45775
H         -2.49531       -2.28732        2.14838
H         -1.21025       -1.45403        1.57126
H         -4.79265        0.86241        1.03702
H         -3.35792        0.20154        1.62836
C         -4.06593       -0.87197        0.08716
C         -2.72851       -1.61115        0.20827
N         -3.90704        0.43381        0.78077
N         -2.22813       -1.49149        1.57966
H          2.79096        2.47346        1.43761
H          4.48667        2.04766        1.71111
H          4.16962        2.31472       -0.66249
H          4.44824        0.61103       -0.31114
H          1.86924        0.54520       -0.37915
H          1.99643        1.92944       -1.22740
H          3.15309        0.57065        2.99184
H          2.33366        0.02746        1.68540
C          3.54193        1.67553        1.29811
C          3.72421        1.42911       -0.19876
N          3.21709        0.42852        1.99046
N          2.50759        1.10018       -0.93937
