41
2msa1dma1tma_55.log	Energy: -1027942.2872058
S         -0.56471       -1.68727       -0.70088
O         -1.94550       -2.17339       -0.77275
O         -0.12766       -1.46036        0.72245
O         -0.29929       -0.47204       -1.52839
H         -0.60261        0.99164       -1.02033
C          0.51534       -2.94009       -1.35305
H          0.37240       -3.84541       -0.76268
H          0.24118       -3.11025       -2.39434
H          1.53680       -2.56549       -1.26974
S          2.94275        0.17182        0.38895
O          2.77395        1.51064       -0.17416
O          3.06784       -0.95251       -0.52881
O          1.80498       -0.09434        1.43684
H          1.02105       -0.69511        1.07290
C          4.36175        0.20677        1.46070
H          5.22581        0.43797        0.83686
H          4.21103        0.98233        2.21133
H          4.46817       -0.77360        1.92394
N         -3.35087       -0.02852        0.92276
C         -4.78537        0.16479        0.78431
C         -2.95147       -0.28804        2.29879
H         -3.05630       -0.81446        0.34390
H         -5.09047        1.07547        1.31417
H         -5.04216        0.28615       -0.27267
H         -5.38111       -0.67182        1.18712
H         -3.10126        0.61410        2.90562
H         -3.52263       -1.10636        2.76910
H         -1.89261       -0.55872        2.32010
N         -0.78685        2.01519       -0.80982
C         -0.57506        2.21251        0.64603
H         -1.26535        1.55570        1.17654
H          0.45662        1.95755        0.88690
H         -0.77662        3.25827        0.89214
C          0.17724        2.79245       -1.62520
H          1.18809        2.49564       -1.34184
H          0.00318        2.56514       -2.67760
H          0.02093        3.85842       -1.44154
C         -2.19612        2.27560       -1.18997
H         -2.32825        2.01713       -2.24132
H         -2.82631        1.64359       -0.55742
H         -2.41671        3.33455       -1.03205
