34
2msa1a1eda_290.log	Energy: -988691.8070808
S          3.84250       -0.18803        0.30456
O          3.45577       -1.46294        0.91394
O          3.27861        1.01462        1.00343
O          3.56168       -0.10555       -1.16592
H          2.44086        1.24228       -1.51865
C          5.61653       -0.05049        0.46914
H          5.85600       -0.07149        1.53268
H          6.06821       -0.90161       -0.04114
H          5.94235        0.88707        0.01836
S         -1.09830       -0.28066       -0.37859
O         -0.70559        1.05056       -0.89352
O         -1.74774       -1.14936       -1.39181
O         -1.98492       -0.16294        0.84135
H         -3.31358       -0.86870        0.49176
C          0.38453       -1.08662        0.17349
H          1.06869       -1.18687       -0.67058
H          0.84386       -0.48107        0.95574
H          0.12600       -2.06979        0.56505
N          1.86125        1.97297       -1.05108
H          1.96512        2.88535       -1.48229
H          2.27239        1.93302       -0.08840
H          0.86129        1.67313       -1.02504
H         -4.73034        0.33850       -1.19580
H         -6.03021       -0.81598       -0.80649
H         -6.47821        1.03824        0.59292
H         -5.66189       -0.09569        1.66778
H         -4.76587        2.21419        1.76779
H         -3.58143        1.26032        1.13238
H         -4.51824       -2.09666        0.45195
H         -3.60705       -1.64625       -0.88872
C         -5.15730       -0.29126       -0.41269
C         -5.51072        0.56834        0.79570
N         -4.12619       -1.31146       -0.06291
N         -4.52447        1.61652        0.98706
