38
2msa2dma_35.log	Energy: -1003288.8090744
S         -2.59685       -0.58354        0.14333
O         -1.33669       -1.25377        0.47256
O         -3.77464       -1.38628       -0.11541
O         -2.36821        0.33980       -1.12124
C         -2.94770        0.58772        1.43431
H         -3.11695        0.01949        2.35001
H         -2.08281        1.24862        1.52767
H         -3.84673        1.13660        1.15360
S          0.70864        1.99951       -0.19811
O          2.12963        1.59747       -0.00865
O         -0.07041        2.00592        1.05198
O          0.05945        1.18716       -1.27867
H         -1.42358        0.70483       -1.15335
C          0.75405        3.67134       -0.81592
H          1.24274        4.29519       -0.06743
H          1.31382        3.67611       -1.75116
H         -0.27317        3.99795       -0.97990
N          2.14478       -0.85711        1.21388
C          1.21491       -0.94516        2.35673
C          3.47101       -1.44829        1.45065
H          1.70167       -1.31770        0.32324
H          1.65277       -0.44774        3.22473
H          0.28172       -0.45940        2.07358
H          1.02337       -1.99609        2.58175
H          3.95480       -0.95960        2.29894
H          3.35984       -2.51455        1.65866
H          4.08127       -1.31306        0.55653
H          2.24121        0.13767        0.91581
N          1.12579       -1.73915       -1.12744
C          0.63980       -3.10821       -1.27918
C          2.07416       -1.33171       -2.16266
H          0.33329       -1.09833       -1.14020
H          1.46717       -3.81126       -1.13333
H         -0.12943       -3.29519       -0.52773
H          0.20840       -3.28874       -2.27392
H          2.97986       -1.94474       -2.09212
H          1.66124       -1.44585       -3.17451
H          2.33648       -0.28260       -2.00740
