34
2msa1a1eda_330.log	Energy: -988687.8093686
S          0.51317        1.64624       -0.37120
O          0.57437        1.57001        1.10462
O         -0.57854        2.44050       -0.91744
O          0.49797        0.19473       -0.96405
H         -0.28694       -0.36152       -0.55392
C          2.07889        2.21313       -0.96110
H          2.18687        3.24275       -0.61740
H          2.85521        1.56256       -0.53348
H          2.05781        2.17149       -2.05030
S         -2.82357       -0.94528       -0.16460
O         -3.48225       -2.22949       -0.34017
O         -1.34193       -1.05996        0.13129
O         -3.43472       -0.06087        0.88340
H         -2.38047        0.37495        1.89403
C         -2.94300       -0.03333       -1.69259
H         -2.47870       -0.62949       -2.47907
H         -4.00318        0.11164       -1.90182
H         -2.43564        0.92623       -1.57605
N         -1.55281        0.57935        2.56387
H         -1.22970       -0.31446        2.92726
H         -1.83218        1.18775        3.32822
H         -0.77359        1.00902        2.01843
H          3.41797       -1.61999        1.80735
H          2.11077       -0.58673        1.20198
H          2.22609       -2.60810       -0.14294
H          2.68858       -1.21311       -1.12237
H          4.55083       -3.17534        0.00945
H          4.34946       -2.76298       -1.55796
H          4.22901        0.62275        1.58016
H          4.88399       -0.24159        0.34595
C          3.10180       -0.98411        0.96212
C          3.00605       -1.84665       -0.28931
N          4.01454        0.13335        0.71809
N          4.32238       -2.40482       -0.61060
