42
2msa2eda_378.log	Energy: -1072752.9209045
S          2.11493        1.68654        0.11447
O          1.67459        1.98528        1.47372
O          1.08859        2.23875       -0.94132
O          2.45676        0.29635       -0.17751
C          3.50190        2.71903       -0.29452
H          3.22027        3.75862       -0.13024
H          4.31559        2.42913        0.37089
H          3.76796        2.54069       -1.33582
S         -1.77769        0.10099       -1.56348
O         -2.33707       -1.00963       -0.74746
O         -0.84129       -0.33037       -2.60538
O         -1.19101        1.16338       -0.66182
H          0.17142        1.78098       -0.87783
C         -3.16669        0.89324       -2.35087
H         -3.85626        1.23346       -1.57801
H         -2.78923        1.73585       -2.93043
H         -3.64496        0.16125       -3.00204
H          0.71599       -3.01489       -1.71999
H          1.13503       -1.36356       -1.23267
H          3.09466       -2.88285       -0.95332
H          2.56395       -2.20373        0.58229
H          2.09355       -4.95053       -0.33077
H          2.70106       -4.43910        1.09607
H         -0.99911       -2.18731       -0.30347
H         -0.08050       -3.33213        0.56997
C          1.01414       -2.38562       -0.87655
C          2.28341       -2.89779       -0.21500
N         -0.08149       -2.41213        0.12275
N          2.03036       -4.21898        0.36969
H          0.03396       -1.64537        0.87743
H         -1.75436        1.29071        3.61751
H         -3.06819        0.14623        3.87146
H         -0.97625       -1.10204        3.69068
H         -2.01340       -1.45907        2.30612
H         -0.67641        0.26737        1.11519
H          0.40975        0.21362        2.31907
H         -2.42343        1.55467        1.36970
H         -3.51243        0.35561        1.46751
C         -2.33627        0.49746        3.13340
C         -1.40809       -0.67284        2.77913
N         -3.05540        1.08325        2.01017
N         -0.31625       -0.33203        1.86159
