34
2msa1a1eda_37.log	Energy: -988711.4344977
S          2.46784       -1.05360        0.15374
O          2.18142       -2.17401        1.06269
O          2.63775        0.26690        0.82025
O          1.43876       -0.95871       -0.94097
H          0.28874        1.05381       -0.63359
C          4.01940       -1.39279       -0.65678
H          4.79551       -1.42735        0.10800
H          3.93564       -2.35468       -1.16268
H          4.21786       -0.59717       -1.37498
S         -2.92919       -0.20595       -0.14733
O         -2.65394        1.00148       -0.93841
O         -1.97608       -0.33006        1.01432
O         -2.96609       -1.47592       -0.92294
H         -1.50546       -2.36294       -0.60722
C         -4.55239       -0.02371        0.56802
H         -4.56084        0.88735        1.16656
H         -5.27101        0.04715       -0.24885
H         -4.75907       -0.89680        1.18691
N         -0.59882       -2.55553       -0.12211
H         -0.71741       -2.19043        0.82581
H          0.18236       -1.99884       -0.55750
H         -0.34838       -3.53918       -0.09398
H          1.88353        3.35811        1.18068
H          1.12207        4.55318        0.12723
H         -0.49545        3.02893        1.40551
H         -0.76300        3.08751       -0.35126
H          0.95817        1.00452        0.84342
H         -0.71869        0.79385        0.66220
H          2.57104        3.64064       -1.35678
H          2.56042        2.15272       -0.66350
C          1.29827        3.48190        0.25755
C         -0.05830        2.80126        0.43071
N          1.97934        2.94779       -0.91744
N          0.11509        1.33275        0.33738
