40
2msa1dma1eda_245.log	Energy: -1038021.3550775
S          0.86804       -2.00243        0.60406
O         -0.41449       -2.24236        1.27937
O          1.88424       -1.27448        1.38402
O          0.66822       -1.32142       -0.74208
C          1.55647       -3.59947        0.20183
H          1.72252       -4.13028        1.13966
H          0.84142       -4.13645       -0.42167
H          2.49801       -3.44890       -0.32631
S         -2.44265        0.13456       -0.99680
O         -3.48597        0.64308       -1.86304
O         -1.48989        1.07961       -0.40560
O         -1.63982       -0.95690       -1.81200
H         -0.74681       -1.15760       -1.37379
C         -3.16828       -0.80490        0.32709
H         -3.71307       -0.10389        0.96105
H         -3.85012       -1.53191       -0.11432
H         -2.36118       -1.30176        0.87285
N          0.29465        2.18715        2.25854
C         -0.25972        0.94181        2.80239
C         -0.72754        3.21807        2.06797
H          1.00887        2.53363        2.89212
H         -0.97307        0.53621        2.08109
H          0.53619        0.20510        2.92510
H         -0.77532        1.09838        3.76103
H         -1.43803        2.86799        1.31427
H         -1.27676        3.44367        2.99398
H         -0.26194        4.13817        1.70365
H          3.13921        2.29282       -0.01375
H          3.06209        0.55375        0.38865
H          4.22335        0.88886       -1.80669
H          2.70433        0.00071       -1.98833
H          3.16793        2.78139       -2.76004
H          2.39510        1.59240       -3.57928
H          0.91039        1.73171        0.71028
H          0.90145        1.98556       -0.98611
C          2.73397        1.32154       -0.31468
C          3.13075        0.97901       -1.74613
N          1.26090        1.38883       -0.23699
N          2.56413        1.97366       -2.65699
H          0.86926        0.44226       -0.39764
