41
2msa1dma1tma_28.log	Energy: -1027946.7779648
S          0.32550        2.15023       -0.47184
O         -0.97652        2.12369        0.25207
O          0.32793        1.40652       -1.73889
O          1.43420        1.72560        0.45165
H          2.34982        0.52398        0.18661
C          0.64709        3.86122       -0.84949
H         -0.14831        4.21413       -1.50619
H          0.65817        4.42308        0.08428
H          1.61378        3.91963       -1.34982
S          2.20734       -1.62088       -0.18010
O          3.13696       -2.70972        0.02258
O          2.97582       -0.27543        0.09647
O          0.95577       -1.63072        0.59623
H         -0.07119       -0.54381        1.46023
C          1.76961       -1.50710       -1.89834
H          2.69618       -1.49339       -2.47251
H          1.17768       -2.39061       -2.14109
H          1.19763       -0.58727       -2.04616
N         -0.65580        0.07150        2.05789
C          0.19270        0.57979        3.15778
C         -1.86042       -0.66933        2.49220
H         -0.92088        0.86753        1.43365
H          0.55759       -0.26428        3.74475
H          1.02537        1.12444        2.71347
H         -0.40124        1.24476        3.78661
H         -1.55074       -1.55363        3.05196
H         -2.46486       -0.02028        3.12866
H         -2.41660       -0.94859        1.58986
N         -3.01681       -1.02771       -0.53934
C         -1.85480       -1.33539       -1.35988
H         -1.15807       -0.49380       -1.34475
H         -1.34475       -2.21792       -0.96125
H         -2.12853       -1.53122       -2.41433
C         -3.98310       -2.11113       -0.56882
H         -3.51112       -3.03959       -0.23190
H         -4.81717       -1.88564        0.10374
H         -4.39538       -2.28246       -1.58138
C         -3.62045        0.23624       -0.93607
H         -4.45355        0.47276       -0.26576
H         -2.87791        1.03477       -0.86173
H         -4.01029        0.20579       -1.97095
