34
2msa1a1eda_325.log	Energy: -988690.5556763
S          2.30805        0.77020        0.01909
O          3.25605        1.78862       -0.36925
O          2.75102       -0.63679        0.00025
O          1.04401        0.91046       -0.91455
H          0.42419        0.09972       -0.86201
C          1.68033        1.10231        1.64581
H          2.51244        0.98007        2.34031
H          1.31640        2.13026        1.65528
H          0.87238        0.39637        1.85702
S         -1.09076       -1.70945        0.34750
O         -0.48232       -1.12336       -0.91006
O         -0.99795       -0.79360        1.48672
O         -0.50052       -3.06204        0.57964
H          0.86922       -3.15316       -0.26269
C         -2.80991       -1.96474       -0.02978
H         -3.23985       -1.00950       -0.34021
H         -2.87552       -2.69225       -0.83858
H         -3.29102       -2.34474        0.87170
N          1.68747       -2.96859       -0.92012
H          2.34577       -3.74189       -0.95275
H          2.15345       -2.09042       -0.59640
H          1.28952       -2.78981       -1.84047
H         -3.62953        2.71128       -0.13481
H         -3.26468        1.21923        0.73760
H         -1.87496        3.12215        1.48657
H         -0.93921        1.74330        0.90563
H         -0.41403        4.17599        0.10471
H         -0.34183        2.96443       -0.98295
H         -2.54381        1.93501       -2.00969
H         -1.89770        0.63183       -1.26724
C         -2.87060        1.93409        0.00374
C         -1.60184        2.55997        0.58570
N         -2.70414        1.25139       -1.27723
N         -0.96879        3.47207       -0.36712
