40
2msa1dma1eda_212.log	Energy: -1038019.3458549
S          0.07792        2.35207       -0.13029
O          0.48311        2.22887        1.27572
O         -1.25724        1.71052       -0.39987
O          1.09936        1.87385       -1.10080
C         -0.16586        4.08205       -0.48370
H         -0.91888        4.46307        0.20623
H          0.78703        4.58971       -0.33256
H         -0.49731        4.18159       -1.51718
S         -2.71113       -1.25746       -0.04751
O         -3.45217       -2.26343        0.68289
O         -1.54263       -1.69272       -0.82722
O         -2.28106       -0.14092        0.96992
H         -1.80831        0.63762        0.48954
C         -3.79038       -0.39256       -1.16827
H         -4.09908       -1.10239       -1.93612
H         -4.65023       -0.03583       -0.60147
H         -3.23083        0.43860       -1.60083
N          1.89722       -1.14805        1.86294
C          0.65448       -1.04542        2.63208
C          2.82884       -0.05622        2.15359
H          2.35185       -2.03500        2.05658
H          0.16831       -0.09737        2.38864
H         -0.02185       -1.85911        2.35776
H          0.82666       -1.07524        3.71791
H          2.35930        0.88915        1.86765
H          3.09379       -0.00344        3.22023
H          3.73605       -0.20006        1.56242
H          1.70007       -2.68669       -1.69291
H          1.34647       -1.36335       -2.81112
H          3.72308       -1.66892       -2.86690
H          3.41543       -0.17167       -1.98260
H          4.15721       -2.73344       -0.76936
H          4.91983       -1.29488       -0.64631
H          0.15102       -1.13819       -0.75696
H          1.55321       -1.06916        0.19578
C          1.83643       -1.61515       -1.86723
C          3.31518       -1.26087       -1.93007
N          1.15189       -0.88270       -0.78417
N          4.00874       -1.73004       -0.73310
H          1.19643        0.14639       -0.94673
