42
2msa2eda_55.log	Energy: -1072770.8698841
S         -2.54710        1.39400        0.15170
O         -3.56364        0.68456       -0.64344
O         -1.79082        2.43104       -0.60582
O         -1.60641        0.47269        0.86135
C         -3.42247        2.26993        1.43765
H         -2.69467        2.79450        2.05677
H         -4.10254        2.97574        0.96004
H         -3.97871        1.54261        2.02939
S          2.54777       -1.39388        0.15110
O          3.56242       -0.68353       -0.64565
O          1.79169       -2.43204       -0.60504
O          1.60687       -0.47330        0.86144
C          3.42572       -2.26820        1.43639
H          4.10629       -2.97318        0.95826
H          3.98152       -1.53994        2.02738
H          2.69931       -2.79367        2.05639
H          1.45299        3.85743       -0.20818
H          1.39936        2.92703        1.31008
H          3.77962        3.38282        0.42292
H          3.40270        1.67799        0.70511
H          4.06652        2.84484       -1.77441
H          3.75495        1.25518       -1.41027
H         -0.12507        2.10359       -0.50888
H          1.31548        1.74855       -1.35464
C          1.68974        2.89791        0.25828
C          3.16997        2.54232        0.07569
N          0.88877        1.85858       -0.42520
N          3.41983        2.21176       -1.32505
H          0.99605        0.94842        0.07536
H         -1.45847       -3.85995       -0.20371
H         -1.40900       -2.92922        1.31449
H         -3.78665       -3.37965        0.41729
H         -3.40679       -1.67578        0.70119
H         -4.06125       -2.84152       -1.78190
H         -3.75132       -1.25220       -1.41481
H          0.12491       -2.10940       -0.49963
H         -1.31175       -1.75199       -1.35028
C         -1.69484       -2.89970        0.26145
C         -3.17348       -2.54061        0.07271
N         -0.88869       -1.86253       -0.41919
N         -3.41664       -2.20888       -1.32891
H         -0.99586       -0.95168        0.08014
