40
2msa1dma1eda_56.log	Energy: -1038036.3620229
S         -2.84043       -0.03439        0.02355
O         -2.00502        0.87628        0.86063
O         -2.85521       -1.42505        0.55058
O         -2.45744        0.04954       -1.40633
C         -4.52086        0.54560        0.15990
H         -4.81136        0.50116        1.20957
H         -4.56099        1.57027       -0.21008
H         -5.15266       -0.10616       -0.44372
S          2.56960       -0.48280       -0.22019
O          2.87724       -1.90138       -0.44814
O          1.52736       -0.29152        0.84973
O          2.17059        0.26600       -1.44580
C          4.04335        0.31106        0.38924
H          4.33786       -0.17989        1.31706
H          4.81843        0.19607       -0.36899
H          3.81154        1.36537        0.55177
N         -0.27892       -2.33743        0.38743
C         -0.24560       -2.59208       -1.07448
C          0.24927       -3.45238        1.19906
H          0.30532       -1.49568        0.59753
H         -0.83146       -3.48806       -1.28578
H         -0.70107       -1.73845       -1.57841
H          0.79254       -2.71892       -1.38288
H         -0.32456       -4.35658        0.98958
H          1.29953       -3.59615        0.94029
H          0.15959       -3.19286        2.25401
H         -1.26242       -2.09492        0.63902
H          0.98581        3.44984       -1.36977
H         -0.75432        3.69858       -1.06059
H          0.58098        4.52087        0.81684
H         -0.47558        3.18815        1.30656
H          1.92300        3.12020        2.07333
H          1.45359        1.75480        1.30654
H         -0.69689        1.50918       -1.76690
H          0.78796        1.16768       -1.08538
C          0.13990        3.15628       -0.74464
C          0.42403        3.44163        0.72443
N         -0.10519        1.70447       -0.95683
N          1.62709        2.75240        1.17636
H         -0.65324        1.31281       -0.15848
