30
2msa1eda_143.log	Energy: -953185.7937534
S         -1.98909       -1.39268        0.07963
O         -2.96257       -2.33799        0.57144
O         -0.90076       -1.88457       -0.78300
O         -1.33773       -0.66923        1.33785
H         -0.38549       -0.44649        1.18106
C         -2.78795       -0.06574       -0.77570
H         -3.53334        0.35939       -0.10280
H         -2.01077        0.66210       -1.04896
H         -3.26469       -0.49943       -1.65601
S          2.17953       -0.55317       -0.09410
O          1.28255       -0.18285        1.01548
O          2.39317        0.44334       -1.12578
O          1.69415       -1.92643       -0.69977
H          0.69130       -1.95343       -0.75776
C          3.73633       -1.05968        0.58229
H          3.55468       -1.82645        1.33429
H          4.35082       -1.43882       -0.23411
H          4.18883       -0.17198        1.02526
H         -0.15319        4.12658       -0.99529
H         -1.80235        3.49583       -1.18624
H         -1.33422        4.04504        1.13759
H         -1.64566        2.31200        0.95257
H          0.35101        3.04595        2.33684
H          0.70228        1.93834        1.19704
H         -0.35221        2.11012       -2.41143
H          0.62896        1.84293       -1.15610
C         -0.80863        3.26977       -0.78091
C         -0.92353        3.11497        0.73016
N         -0.34194        2.02559       -1.39976
N          0.38753        2.89412        1.33560
