37
2msa1ma1eda_15.log	Energy: -1013375.7365273
S         -2.24671       -1.31913       -0.15608
O         -1.58627       -2.42746       -0.89783
O         -2.88437       -0.30124       -1.00282
O         -1.30128       -0.72025        0.84731
C         -3.54298       -2.08671        0.80293
H         -4.23700       -2.55863        0.10697
H         -3.09600       -2.82931        1.46390
H         -4.04755       -1.31168        1.38037
S          2.84222        0.52448       -0.06814
O          2.88939       -0.52038       -1.12766
O          2.23250        0.01820        1.18634
O          2.20102        1.78934       -0.52493
C          4.53831        0.94248        0.29001
H          5.04791        0.04031        0.62861
H          4.99411        1.32243       -0.62443
H          4.54359        1.70461        1.06920
N          1.02259       -2.25279       -0.07797
H          1.68175       -1.74048       -0.70094
H          0.81785       -1.57505        0.66752
C          1.64064       -3.47368        0.46925
H          0.94307       -3.95372        1.15554
H          1.87743       -4.15508       -0.34759
H          2.55332       -3.19909        0.99794
H          0.10918       -2.43294       -0.54895
H         -0.65084        3.21493       -1.24493
H         -1.33899        1.59825       -1.55419
H         -3.14356        3.26761       -1.09333
H         -3.10110        1.95517        0.08295
H         -2.15553        4.69737        0.53882
H         -3.15377        3.79164        1.46497
H          0.61194        1.81291        0.06744
H         -0.55224        2.46099        1.11970
C         -1.21035        2.38295       -0.80832
C         -2.56061        2.83768       -0.26930
N         -0.40531        1.84345        0.31425
N         -2.34676        3.75252        0.85479
H         -0.72342        0.88009        0.56985
