30
2msa1eda_27.log	Energy: -953206.1795280
S         -1.36196        1.51233        0.03684
O         -2.73226        1.47310       -0.48669
O         -0.35502        1.10428       -1.00956
O         -1.15887        0.70970        1.27485
H         -0.67606       -0.84863        0.70830
C         -0.98233        3.20047        0.45862
H         -1.07052        3.80048       -0.44725
H         -1.70093        3.52755        1.21023
H          0.03279        3.23519        0.85535
S          2.64891       -0.31535        0.03858
O          2.06508       -1.56087       -0.48546
O          2.51618       -0.08985        1.46825
O          2.12883        0.91022       -0.78845
H          1.09065        0.98779       -0.82666
C          4.36276       -0.26942       -0.42211
H          4.84958       -1.09450        0.09875
H          4.43795       -0.39256       -1.50179
H          4.77725        0.68607       -0.10187
H         -1.58554       -3.59212        0.01752
H         -1.53233       -2.87567        1.64973
H         -3.84222       -2.72345        0.54346
H         -3.16482       -1.16112        1.01830
H         -3.73566       -2.01459       -1.63642
H         -3.26485       -0.51493       -1.09691
H          0.31683       -2.05880        0.08138
H         -0.93029       -1.41589       -0.81969
C         -1.69053       -2.66728        0.58991
C         -3.04905       -2.00083        0.32569
N         -0.65276       -1.72002        0.12671
N         -3.08291       -1.51523       -1.04892
