42
2msa2eda_478.log	Energy: -1072748.1161210
S          2.96090       -0.40259        0.21940
O          3.85198       -1.16596        1.08080
O          1.61734       -0.11846        0.86544
O          2.72277       -1.00120       -1.12858
H          1.17192       -1.29888       -1.42529
C          3.68000        1.20364       -0.06956
H          4.63089        1.05096       -0.58069
H          2.99921        1.79430       -0.68537
H          3.84053        1.67930        0.89850
S         -0.37241        2.29778       -0.28072
O         -0.94992        1.05018       -0.81449
O          0.52444        3.02674       -1.16196
O          0.31275        1.99482        1.10025
H          0.91668        1.15905        1.02746
C         -1.70876        3.32866        0.25781
H         -2.34570        2.72714        0.91361
H         -1.28665        4.19071        0.77401
H         -2.24263        3.64154       -0.64028
H         -1.41048       -2.83894       -1.22465
H          0.14217       -3.49846       -1.82180
H         -0.28561       -4.11046        0.51597
H          1.18860       -3.14716        0.37137
H         -0.58421       -2.58764        2.15866
H          0.14751       -1.37328        1.36550
H         -0.13065       -1.22158       -2.49424
H         -0.30973       -0.67761       -0.96368
C         -0.32196       -2.79171       -1.12970
C          0.09263       -3.10656        0.30220
N          0.12223       -1.42690       -1.52944
N         -0.49775       -2.15470        1.24555
H         -2.74989       -0.72158       -1.19999
H         -4.45375       -1.09591       -1.41068
H         -4.07238        1.10363       -0.36102
H         -5.01024        0.05582        0.69793
H         -3.23503       -0.20736        2.11562
H         -2.12424        0.27984        1.03136
H         -2.67102       -2.19599        0.65363
H         -4.27400       -2.57395        0.49420
C         -3.66598       -0.98264       -0.65574
C         -4.01436        0.20050        0.26128
N         -3.44575       -2.26863       -0.00693
N         -3.07465        0.44212        1.35390
