35
2msa1a1tma_15.log	Energy: -978629.0182731
S          2.10811       -1.19185        0.03070
O          1.86296       -1.53477        1.44059
O          2.91900        0.01828       -0.19637
O          0.81941       -1.11089       -0.76263
C          2.99496       -2.55766       -0.69744
H          3.95262       -2.64550       -0.18362
H          2.40230       -3.46246       -0.56169
H          3.14393       -2.34585       -1.75621
S         -2.49149       -0.56376       -0.03879
O         -2.19766        0.41802       -1.08624
O         -2.68729       -0.03214        1.30996
O         -1.43860       -1.70759       -0.03622
H         -0.43998       -1.43220       -0.30955
C         -3.95189       -1.47193       -0.48869
H         -4.78093       -0.76383       -0.49337
H         -3.79958       -1.90225       -1.47795
H         -4.11242       -2.24928        0.25804
N          0.12352        0.80530        2.04175
H          0.34597        1.33068        2.88157
H          0.68588       -0.05013        2.06457
H         -0.85780        0.53057        2.09768
N          0.53930        2.34707       -0.22420
C          0.66224        1.82428       -1.61012
H          1.56659        1.22196       -1.66931
H         -0.20827        1.20585       -1.82245
H          0.71138        2.67829       -2.29199
C         -0.66612        3.19512       -0.07325
H         -1.53239        2.61437       -0.39344
H         -0.77450        3.46603        0.97809
H         -0.55575        4.09464       -0.68350
C          1.77853        3.03842        0.20267
H          1.64173        3.41055        1.21922
H          2.58923        2.30853        0.17807
H          1.97984        3.87121       -0.47541
H          0.40773        1.56522        0.49599
