37
2msa1ma1eda_133.log	Energy: -1013362.7176323
S          0.78483        1.89201        0.51102
O          0.46919        1.84166       -0.92708
O          2.15395        1.41626        0.84249
O         -0.24286        1.18366        1.34600
C          0.72749        3.60072        1.01567
H          1.47556        4.14723        0.44114
H         -0.27257        3.98207        0.80772
H          0.94534        3.65035        2.08244
S         -2.62346       -0.42029       -0.72473
O         -3.97798       -0.92280       -0.82241
O         -1.52222       -1.37458       -0.55815
O         -2.59371        0.61609        0.46821
H         -1.65085        0.83977        0.76844
C         -2.25421        0.58255       -2.14595
H         -2.23762       -0.08124       -3.01144
H         -3.04675        1.32427       -2.24641
H         -1.28368        1.05780       -1.98291
N         -0.00119       -1.80604        1.97928
H         -0.11488       -0.84467        2.29985
C         -0.21506       -2.76400        3.06537
H         -1.20115       -2.67292        3.53657
H         -0.11496       -3.78077        2.67651
H          0.54790       -2.62346        3.83603
H         -0.70246       -1.91688        1.24557
H          1.47911       -2.45147       -1.18355
H          0.75535       -0.84442       -1.05236
H          2.37667       -0.91163       -2.95270
H          2.89679        0.21332       -1.69638
H          4.05085       -2.42280       -2.23167
H          4.81115       -0.99845       -1.98078
H          1.43702       -1.66193        1.10231
H          3.08356       -1.77079        0.48379
C          1.69262       -1.39788       -0.98067
C          2.75130       -0.84707       -1.92303
N          2.18190       -1.29635        0.41573
N          4.01417       -1.55791       -1.70281
H          2.31579       -0.28698        0.65105
