25
2msa1ma_04.log	Energy: -893813.4286865
S          2.32080       -0.21043       -0.04745
O          3.75080       -0.31009       -0.23193
O          1.64009       -1.21044       -1.05069
O          1.71405        1.12495       -0.19550
H          0.27351        1.91575       -0.53808
C          1.85534       -0.82299        1.55539
H          2.20655       -1.85173        1.63566
H          2.35291       -0.18835        2.28991
H          0.76826       -0.75142        1.65100
S         -1.84241       -0.65915       -0.03730
O         -2.33190        0.39087       -0.98106
O         -1.33541       -0.07705        1.22324
O         -0.86319       -1.58348       -0.67694
H          0.63447       -1.29723       -0.91728
C         -3.25747       -1.66701        0.34751
H         -4.00997       -1.02798        0.80945
H         -3.63130       -2.09870       -0.58074
H         -2.93633       -2.44826        1.03635
N         -0.63029        2.42548       -0.64246
H         -0.54239        3.08964       -1.40800
C         -0.99119        3.08145        0.63711
H         -1.94013        3.60410        0.51799
H         -1.09480        2.29232        1.38190
H         -0.20549        3.77973        0.92448
H         -1.35310        1.69028       -0.88661
