34
2msa1a1eda_89.log	Energy: -988704.9926549
S         -0.35900       -2.25468       -0.07126
O         -1.44099       -2.06190        0.91243
O          0.98959       -1.95951        0.51944
O         -0.57334       -1.51919       -1.34302
C         -0.31999       -3.98778       -0.48645
H         -1.28788       -4.25518       -0.91071
H          0.47722       -4.14704       -1.21261
H         -0.12980       -4.54882        0.42854
S          2.32414        1.14399       -0.05147
O          2.27511        1.30580        1.40021
O          1.17521        1.64369       -0.80584
O          2.64041       -0.34020       -0.43750
H          1.93410       -1.00917       -0.06947
C          3.79731        1.91765       -0.67306
H          4.65433        1.50260       -0.14385
H          3.86234        1.72487       -1.74346
H          3.69870        2.98564       -0.47692
N         -0.62711        0.61391        2.17829
H         -1.02349        1.03372        3.01210
H          0.38011        0.77799        2.19305
H         -0.78157       -0.39382        2.21952
H         -3.27702        0.41668       -1.44146
H         -3.06463       -0.28745        0.17131
H         -4.77829        1.53313        0.24140
H         -3.35754        1.97191        1.19499
H         -3.99313        3.01704       -1.46649
H         -3.65693        3.84651       -0.09730
H         -0.98506        0.20669       -0.95809
H         -1.34173        1.85770       -0.87470
C         -2.94872        0.62436       -0.41889
C         -3.71424        1.79852        0.17450
N         -1.50737        0.94426       -0.44984
N         -3.44503        3.00121       -0.61293
H         -1.12964        0.95637        0.54705
