22
2msa1a_14.log	Energy: -869139.5236473
S          2.26307       -0.29378       -0.08219
O          2.40867        0.83765       -1.05017
O          1.72874       -1.52769       -0.66511
O          1.49723        0.16494        1.13131
C          3.91255       -0.65402        0.49489
H          4.50312       -0.97523       -0.36349
H          4.33426        0.24838        0.93739
H          3.84502       -1.45224        1.23431
S         -2.48392       -0.07650        0.07855
O         -3.26085        0.08823        1.29449
O         -1.88007        1.09728       -0.54413
O         -3.46342       -0.72254       -1.03855
H         -4.34727       -0.80092       -0.65112
C         -1.26282       -1.33976        0.26314
H         -0.51079       -0.96512        0.96378
H         -1.75758       -2.23355        0.64213
H         -0.78019       -1.51587       -0.69894
N          0.54741        2.39172        0.03823
H          1.24799        2.08223       -0.67895
H         -0.40200        2.12346       -0.25917
H          0.81415        1.75371        0.82454
H          0.61426        3.37735        0.26926
