43
2msa1eda1tma_129.log	Energy: -1062678.6455171
S          2.80707       -0.43835       -0.69246
O          2.76308       -1.78261       -0.13096
O          3.21396        0.67209        0.15860
O          1.41502       -0.13326       -1.35601
H          0.93937        0.73987       -0.98615
C          3.87316       -0.47402       -2.11927
H          4.87595       -0.71773       -1.76653
H          3.51012       -1.23922       -2.80511
H          3.85626        0.51068       -2.58567
S         -0.10129        2.09329        0.86480
O         -1.34886        2.83260        1.06383
O          0.16555        1.84186       -0.60221
O         -0.01027        0.81685        1.63149
H         -0.99347       -0.42195        1.21521
C          1.26112        3.08718        1.43003
H          1.24816        4.02205        0.86918
H          1.11897        3.27310        2.49483
H          2.17684        2.52399        1.24337
H         -1.19475       -3.00559       -0.23368
H          0.04070       -1.73480       -0.43239
H          0.91418       -3.59383        0.99243
H          0.82586       -2.07519        1.86731
H         -0.96896       -4.35888        2.20475
H         -0.26982       -3.41848        3.34193
H         -2.25388       -0.90519        0.16344
H         -1.98530       -1.70078        1.67888
C         -0.60155       -2.24564        0.28600
C          0.21703       -2.86164        1.41329
N         -1.53741       -1.25642        0.87157
N         -0.69732       -3.40652        2.42389
N         -3.25413       -0.20289       -1.05824
C         -4.26157       -1.13951       -1.54266
H         -3.77449       -2.02672       -1.95858
H         -4.90817       -1.45133       -0.71688
H         -4.89460       -0.69305       -2.32765
C         -3.87449        0.97853       -0.45308
H         -4.52371        0.66784        0.37127
H         -3.10405        1.64729       -0.05880
H         -4.48449        1.53266       -1.18504
C         -2.33520        0.18527       -2.13095
H         -1.58201        0.87383       -1.73979
H         -1.82940       -0.70371       -2.52072
H         -2.86878        0.67566       -2.96176
