43
2msa1eda1tma_57.log	Energy: -1062688.8104552
S          1.07515       -2.23250       -0.27143
O          0.07427       -2.08101       -1.34272
O          0.50439       -2.20615        1.09761
O          2.21530       -1.26227       -0.38847
H          1.90247       -0.06265        0.73079
C          1.81925       -3.84097       -0.49716
H          1.03222       -4.59159       -0.41843
H          2.27560       -3.86868       -1.48686
H          2.57037       -3.98754        0.27916
S         -0.98448        2.08836       -0.47456
O         -0.43441        3.37901       -0.05469
O         -2.36486        2.07306       -0.99003
O         -0.87089        1.05683        0.65763
H         -2.05470       -0.01448        0.54953
C          0.07296        1.44192       -1.76087
H         -0.10906        2.03465       -2.65849
H          1.11611        1.54787       -1.45080
H         -0.16780        0.38934       -1.92593
H          4.32857        0.98787        1.23382
H          4.25049        2.68861        0.76608
H          2.51493        2.30049        2.40130
H          1.75838        2.61351        0.82813
H          1.75970        0.14153        2.36095
H          0.59872        0.78647        1.31411
H          4.35970        1.64728       -1.26189
H          3.32092        0.43654       -0.87459
C          3.72412        1.73253        0.68874
C          2.38317        1.91309        1.38821
N          3.53441        1.41981       -0.72187
N          1.62878        0.62718        1.47695
N         -2.89012       -0.66727        0.48322
C         -2.95031       -1.14384       -0.92335
H         -3.07077       -0.27094       -1.56576
H         -2.01102       -1.65141       -1.15369
H         -3.80014       -1.82328       -1.02900
C         -2.65027       -1.77979        1.43280
H         -1.68796       -2.23981        1.19783
H         -2.61171       -1.37081        2.44360
H         -3.46770       -2.50102        1.35462
C         -4.08101        0.13927        0.84067
H         -3.96036        0.51043        1.85920
H         -4.13334        0.98428        0.15357
H         -4.97371       -0.48741        0.77157
