40
2msa1dma1eda_526.log	Energy: -1038007.6785212
S          0.20461       -2.09566        0.28081
O         -0.46390       -3.29063       -0.21899
O          0.35053       -1.00910       -0.75366
O          1.54584       -2.36009        0.89889
H          2.75391       -1.51447        0.54153
C         -0.79512       -1.39981        1.58249
H         -1.77249       -1.14433        1.15820
H         -0.89482       -2.15845        2.35948
H         -0.28522       -0.51333        1.96425
S         -0.40467        2.24634        0.18464
O         -0.17145        3.55468       -0.39564
O          0.62784        1.67344        1.05391
O         -0.71843        1.23100       -0.97880
H         -0.31039        0.28974       -0.82191
C         -1.93683        2.28080        1.08746
H         -1.77519        2.88239        1.98240
H         -2.68763        2.74294        0.44610
H         -2.22174        1.25678        1.33532
N         -3.41609       -0.41658       -0.39545
C         -4.71081        0.23383       -0.26753
C         -3.52446       -1.74601       -0.98827
H         -2.80256        0.15526       -0.96910
H         -5.34145       -0.34810        0.41308
H         -4.59196        1.23311        0.16206
H         -5.25148        0.33129       -1.22450
H         -4.09067       -2.39569       -0.31212
H         -4.03998       -1.74245       -1.96341
H         -2.53280       -2.18630       -1.11489
H          4.81334       -0.40451       -1.33991
H          3.27179       -1.21954       -1.73496
H          3.22170        1.34821       -2.01726
H          1.97480        0.65412       -0.97742
H          4.15273        2.33666       -0.13316
H          2.67855        2.04804        0.55799
H          4.43368       -1.69866        0.53361
H          3.80034       -0.18552        0.91788
C          3.76030       -0.51035       -1.06528
C          3.04430        0.84598       -1.06109
N          3.69600       -1.03074        0.32554
N          3.47875        1.61889        0.10090
