37
2msa1ma1eda_463.log	Energy: -1013350.2859606
S          2.09210       -1.44386       -0.34922
O          2.84305       -0.70724        0.68540
O          2.19392       -0.91901       -1.70315
O          0.60185       -1.60140        0.09010
H          0.16065       -0.65271        0.20616
C          2.61061       -3.13890       -0.30838
H          3.66211       -3.15599       -0.59627
H          2.47676       -3.51846        0.70398
H          2.00429       -3.69562       -1.02242
S         -0.71007        1.69928       -0.60037
O         -1.99217        2.31186       -0.27241
O         -0.27819        0.68024        0.44608
O          0.41583        2.66355       -0.79701
H          1.66147        2.31801        0.11731
C         -0.87769        0.78298       -2.11484
H         -1.68117        0.05712       -1.95296
H         -1.14460        1.49615       -2.89563
H          0.07656        0.30181       -2.33749
N          2.40555        2.05820        0.83778
H          2.61015        1.04558        0.72837
C          1.88301        2.32898        2.19837
H          2.60979        2.00580        2.94349
H          1.68156        3.39512        2.29926
H          0.95361        1.77058        2.30453
H          3.25515        2.58255        0.64190
H         -4.83699       -1.27972        0.90248
H         -4.36911       -2.32227       -0.45898
H         -3.15713       -2.93537        1.54774
H         -2.04154       -2.33500        0.30584
H         -1.76388       -1.47237        2.65946
H         -1.88364       -0.29564        1.54504
H         -4.39439       -0.11982       -1.24940
H         -3.42804        0.43710       -0.07172
C         -4.02186       -1.52015        0.20257
C         -2.83706       -2.03661        1.00808
N         -3.63153       -0.38576       -0.63572
N         -2.39980       -1.04892        1.99308
