40
2msa1dma1eda_313.log	Energy: -1038021.4888060
S         -2.54687       -0.00573       -0.75584
O         -3.96197        0.30585       -0.93415
O         -2.22277       -1.41466       -0.42262
O         -1.86710        0.90186        0.25625
H         -1.26112       -0.10807        1.35563
C         -1.72289        0.33152       -2.30726
H         -2.19410       -0.29439       -3.06605
H         -1.86456        1.38544       -2.55115
H         -0.66230        0.08535       -2.21393
S          2.01976       -1.30689       -0.63094
O          3.35990       -1.88394       -0.69091
O          1.70017       -0.29219       -1.65436
O          1.73962       -0.71197        0.76180
H          2.19368        0.78527        0.77085
C          0.82589       -2.62009       -0.78835
H          0.97986       -3.07624       -1.76714
H          1.01987       -3.35195       -0.00274
H         -0.18481       -2.20606       -0.71559
N         -0.66125       -0.62306        2.06433
C         -1.28487       -1.90046        2.46188
C         -0.39202        0.30342        3.17805
H          0.23111       -0.79614        1.55047
H         -2.21370       -1.69271        2.99562
H         -1.51951       -2.45388        1.55367
H         -0.59917       -2.45739        3.10372
H         -1.32098        0.49636        3.71704
H          0.34808       -0.12872        3.85445
H         -0.02605        1.24404        2.76171
H          2.68561        3.51215       -0.40703
H          2.69012        1.93267       -1.26519
H          0.49870        3.22892       -1.54330
H          0.35467        1.59362       -0.89265
H         -0.08381        4.05123        0.57247
H         -0.84660        2.58861        0.62140
H          3.38862        1.92853        1.18418
H          1.75366        2.27197        1.46431
C          2.22562        2.52204       -0.47421
C          0.71230        2.60020       -0.67161
N          2.44085        1.83276        0.82898
N          0.06318        3.04799        0.56221
