35
2msa1ma1dma_250.log	Energy: -978619.1605072
S          0.80175        1.52301       -0.50535
O          0.53711        0.47323       -1.53474
O          0.52243        1.04435        0.86852
O          0.06611        2.78833       -0.80817
H         -1.46718        2.56608       -0.29824
C          2.53398        1.88944       -0.62701
H          3.08957        0.96968       -0.40719
H          2.73093        2.23877       -1.64075
H          2.76007        2.66869        0.10149
S         -1.87238       -1.71866       -0.14205
O         -2.66609       -2.91648       -0.29791
O         -2.58643       -0.46320        0.15292
O         -1.01564       -1.54016       -1.44589
H         -0.44075       -0.69662       -1.44667
C         -0.65713       -1.94900        1.13467
H         -1.19851       -2.12604        2.06495
H         -0.05291       -2.81675        0.86902
H         -0.05659       -1.03749        1.19636
N         -2.35694        2.25503        0.18849
H         -3.16368        2.69473       -0.24822
C         -2.26112        2.55712        1.63692
H         -3.13390        2.15473        2.15051
H         -1.35005        2.08158        2.00037
H         -2.19726        3.63588        1.77765
H         -2.42868        1.22392        0.05734
N          3.70316       -1.11852        0.35908
C          2.85136       -1.95893       -0.47135
C          3.20574       -0.98375        1.72115
H          4.64390       -1.49614        0.37362
H          1.89101       -1.46037       -0.63157
H          3.31246       -2.09749       -1.45244
H          2.65859       -2.95336       -0.03076
H          2.26329       -0.42686        1.70621
H          3.02910       -1.95369        2.21943
H          3.92022       -0.41232        2.32025
