42
2msa2eda_09.log	Energy: -1072771.1995776
S         -2.86966       -0.75872        0.40689
O         -2.16938       -1.76608        1.25615
O         -2.34392       -0.73129       -0.97468
O         -2.90451        0.59130        1.03771
C         -4.56980       -1.29180        0.33006
H         -4.59527       -2.28238       -0.12420
H         -4.96391       -1.32259        1.34585
H         -5.12368       -0.57585       -0.27736
S          2.78321        0.77604        0.32544
O          2.51715        2.08531       -0.29229
O          3.27679       -0.28014       -0.57095
O          1.56826        0.30191        1.10592
C          4.04044        1.03015        1.56909
H          4.94006        1.38299        1.06398
H          3.68180        1.77536        2.27920
H          4.22887        0.07937        2.06799
H          0.41423        2.18209       -1.32683
H         -1.02998        1.11781       -1.38753
H         -1.47992        3.35111       -2.46051
H         -2.51926        3.04701       -1.06166
H         -0.14500        4.77571       -1.04320
H         -1.68884        5.17273       -0.65694
H          0.22686        1.36376        0.80253
H         -0.49384        2.89529        0.85704
C         -0.61769        2.04908       -0.99294
C         -1.48643        3.24231       -1.36794
N         -0.58280        1.94194        0.48940
N         -1.00922        4.42219       -0.64480
H         -1.46988        1.50541        0.83169
H         -0.44539       -2.85250       -1.29512
H          0.36104       -1.29618       -1.48300
H          1.72097       -3.16396       -2.49506
H          2.57107       -2.31742       -1.19246
H          1.34229       -4.97533       -0.99526
H          2.84443       -4.49872       -0.55387
H         -0.56005       -1.99586        0.81280
H          0.84592       -2.95086        0.85809
C          0.44227       -2.27866       -1.01823
C          1.73411       -2.98535       -1.41229
N          0.42044       -2.10760        0.45650
N          1.87742       -4.20402       -0.61074
H          0.96715       -1.26398        0.74262
