41
2msa1dma1tma_58.log	Energy: -1027943.4749118
S         -2.72064       -0.30075       -0.19764
O         -3.41300       -1.09877       -1.19231
O         -3.26775        0.98602        0.21008
O         -1.24193        0.01949       -0.68009
C         -2.44287       -1.30836        1.24650
H         -3.42110       -1.63439        1.60193
H         -1.81974       -2.15807        0.96549
H         -1.93710       -0.70609        2.00054
S          1.44345       -1.85154       -0.09063
O          0.85295       -1.82056        1.26549
O          2.46588       -0.80748       -0.32025
O          0.37655       -1.83964       -1.15341
H         -0.67033       -0.81103       -0.91236
C          2.24811       -3.43035       -0.28086
H          1.50155       -4.21196       -0.14053
H          2.67629       -3.47962       -1.28194
H          3.02836       -3.50008        0.47737
N          0.64078        1.12319        1.56342
C         -0.45860        1.82911        2.21918
C          1.88644        1.18165        2.32934
H          0.40512        0.13252        1.47637
H         -0.20517        2.89051        2.32393
H         -1.36747        1.75082        1.61642
H         -0.66405        1.43949        3.22782
H          2.21759        2.22255        2.42239
H          1.77031        0.77109        3.34241
H          2.64833        0.60393        1.80181
N          1.02352        2.08468       -0.98102
C         -0.06229        3.09214       -1.02154
H         -1.01518        2.56713       -1.09868
H         -0.04253        3.67033       -0.09675
H          0.08386        3.75415       -1.87855
C          2.34908        2.69418       -0.73112
H          2.31123        3.24955        0.20681
H          3.08166        1.88990       -0.65134
H          2.60612        3.36750       -1.55242
C          1.05015        1.26464       -2.21915
H          1.76137        0.45194       -2.07625
H          0.05719        0.85669       -2.39280
H          1.34539        1.90961       -3.05161
H          0.83153        1.50464       -0.08473
