35
2msa1ma1dma_224.log	Energy: -978619.5184700
S         -1.15269       -2.16254       -0.18600
O         -1.36426       -3.56668       -0.45357
O         -2.26183       -1.23645       -0.47979
O          0.12756       -1.71038       -0.97445
H          0.26480       -0.69949       -1.00814
C         -0.70928       -1.93109        1.51907
H         -1.56322       -2.25188        2.11740
H          0.16024       -2.55521        1.72597
H         -0.48775       -0.87156        1.66945
S          0.27297        1.82219       -0.13910
O          0.66527        0.77268       -1.13339
O         -0.17820        1.23207        1.14062
O         -0.73690        2.76156       -0.71095
H         -2.18323        2.00821       -0.68250
C          1.73954        2.77641        0.16567
H          2.52702        2.08523        0.47985
H          2.01553        3.26754       -0.76772
H          1.50604        3.51084        0.93648
N         -3.00954        1.38318       -0.45762
H         -3.76387        1.54779       -1.11999
C         -3.42670        1.60549        0.94791
H         -4.19373        0.88052        1.21914
H         -2.53860        1.47383        1.56681
H         -3.80594        2.62124        1.05729
H         -2.67949        0.40097       -0.56629
N          3.41925       -0.12288        0.06338
C          2.83762       -0.83824        1.18679
C          4.61288       -0.76819       -0.45663
H          2.72266       -0.03687       -0.67122
H          3.54110       -0.83001        2.02709
H          1.92193       -0.33338        1.50795
H          2.59726       -1.89203        0.95764
H          5.40558       -0.73452        0.29907
H          4.45502       -1.82575       -0.73179
H          4.96875       -0.23081       -1.33967
