43
2msa1eda1tma_172.log	Energy: -1062675.0952317
S         -2.68784       -0.60084       -0.45449
O         -3.01999        0.80058       -0.70788
O         -2.74241       -1.09675        0.91265
O         -1.28568       -0.89392       -1.09789
H         -0.56549       -1.22283       -0.40259
C         -3.75357       -1.59814       -1.47313
H         -4.77826       -1.40722       -1.15252
H         -3.61414       -1.30323       -2.51289
H         -3.49041       -2.64491       -1.32315
S          0.82605       -0.77755        1.62056
O          2.26863       -0.66988        1.85551
O          0.50077       -1.64131        0.43022
O          0.13109        0.53916        1.51930
H          0.17378        1.73284        0.45598
C          0.07176       -1.59591        3.00720
H          0.51855       -2.58654        3.09485
H          0.26929       -1.00309        3.90052
H         -0.99782       -1.66004        2.80215
H          3.32366       -1.68205       -0.36433
H          4.30988       -1.38758       -1.79730
H          2.67201        0.25842       -2.63469
H          1.52952       -0.21058       -1.37779
H          3.08711        0.63606        0.24390
H          4.08965        1.15751       -0.93329
H          1.69829       -2.70969       -1.66639
H          2.44180       -2.34519       -3.08515
C          3.27565       -1.44711       -1.43220
C          2.59587       -0.07954       -1.59168
N          2.60072       -2.54926       -2.10360
N          3.11269        0.97842       -0.71805
N          0.03002        2.65934       -0.02870
C         -0.06638        2.40779       -1.48817
H          0.88716        2.00078       -1.82468
H         -0.87256        1.69490       -1.66298
H         -0.27627        3.35310       -1.99457
C         -1.23666        3.20473        0.52250
H         -2.04496        2.51461        0.27694
H         -1.13278        3.28852        1.60454
H         -1.41883        4.18783        0.08161
C          1.20155        3.50469        0.30685
H          1.26395        3.59768        1.39179
H          2.09259        3.00371       -0.07985
H          1.07042        4.48962       -0.14837
