41
2msa1dma1tma_88.log	Energy: -1027939.7146931
S         -0.65228        2.31112       -0.18085
O          0.47966        2.48671        0.73208
O         -1.81672        1.58556        0.30560
O         -0.13676        1.71970       -1.53676
H         -0.27935        0.68432       -1.65502
C         -1.16442        3.92640       -0.72249
H         -1.51212        4.46364        0.16035
H         -0.30722        4.42969       -1.16904
H         -1.96950        3.80562       -1.44666
S          0.30653       -1.67727       -1.01051
O          1.64016       -2.07437       -1.49460
O         -0.39704       -0.71531       -1.91870
O          0.36267       -1.13461        0.38886
H          1.74909       -0.44612        0.70902
C         -0.74367       -3.10497       -0.94934
H         -0.86102       -3.47577       -1.96792
H         -0.25555       -3.85008       -0.32012
H         -1.69593       -2.77383       -0.51714
N         -2.84901       -1.31387        0.79182
C         -2.48531       -1.73654        2.13265
C         -4.24804       -0.94225        0.67809
H         -2.27428       -0.51475        0.53667
H         -3.00498       -2.67021        2.38110
H         -1.40780       -1.91858        2.16834
H         -2.73934       -0.99339        2.90982
H         -4.87957       -1.82540        0.83214
H         -4.55795       -0.17385        1.40860
H         -4.44252       -0.55681       -0.32615
N          2.73874       -0.08595        0.87118
C          3.59957       -1.29065        0.94555
H          3.27843       -1.89890        1.79206
H          3.46648       -1.85458        0.02126
H          4.64014       -0.98420        1.07713
C          3.08140        0.75474       -0.30513
H          2.97423        0.14240       -1.20181
H          2.38602        1.59331       -0.33848
H          4.10987        1.10915       -0.19991
C          2.73445        0.69339        2.13145
H          2.00779        1.49963        2.02991
H          2.44303        0.03228        2.94859
H          3.73623        1.09132        2.31146
