32
2msa2ma_236.log	Energy: -953949.4092983
S         -1.55128        1.08828        0.13406
O         -0.86358        2.14510       -0.60246
O         -1.23327       -0.30270       -0.38331
O         -3.04189        1.23007        0.18940
H         -3.77266       -0.07565       -0.49780
C         -0.97676        1.11808        1.81691
H          0.08426        0.86359        1.80934
H         -1.15124        2.12121        2.20675
H         -1.53771        0.37695        2.38624
S          2.14497       -1.46155        0.18040
O          2.53853       -2.81776        0.51292
O          1.69325       -0.56963        1.24703
O          1.00129       -1.53898       -0.92773
H          0.22285       -0.96093       -0.68517
C          3.45669       -0.67115       -0.71525
H          4.30106       -0.59363       -0.02829
H          3.71310       -1.30717       -1.56299
H          3.10685        0.31971       -1.03592
N         -3.72843       -1.06686       -0.87528
H         -4.16107       -1.12457       -1.79391
C         -4.27152       -2.04988        0.08715
H         -4.10876       -3.06080       -0.28537
H         -3.74480       -1.91840        1.03172
H         -5.33583       -1.86839        0.23317
H         -2.69012       -1.14034       -0.95372
N          2.17185        2.31496       -1.09858
H          2.43641        3.03461       -1.76272
C          2.50626        2.72788        0.26385
H          1.98987        3.63814        0.60173
H          2.25397        1.91495        0.95107
H          3.58492        2.89800        0.34339
H          1.16331        2.19987       -1.17459
