29
2msa1a1ma_53.log	Energy: -929302.6065875
S          2.09261       -0.49632       -0.29873
O          1.02154       -0.92614       -1.24857
O          1.64960       -0.49369        1.10801
O          2.68972        0.80760       -0.71506
H          1.57783        1.97430       -0.43443
C          3.39315       -1.70013       -0.46768
H          2.98807       -2.67161       -0.18407
H          3.71920       -1.70531       -1.50756
H          4.20862       -1.41147        0.19548
S         -2.30115        0.03467       -0.51943
O         -3.00310        0.35582       -1.74829
O         -1.49151        1.11545        0.07793
O         -1.41725       -1.25116       -0.68719
H         -0.42989       -1.06955       -0.89988
C         -3.43418       -0.53218        0.71650
H         -4.11243        0.29486        0.92925
H         -3.98037       -1.37929        0.30059
H         -2.83771       -0.82159        1.58960
N         -0.91894       -1.69455        2.46826
H         -0.13614       -1.21654        2.02208
H         -1.00295       -2.59516        2.00674
H         -0.65201       -1.87482        3.43057
N          0.78182        2.55715       -0.05029
H          0.71365        3.43558       -0.55839
C          0.98212        2.75617        1.40627
H          0.11444        3.26379        1.82635
H          1.09493        1.76719        1.85160
H          1.88772        3.34012        1.56916
H         -0.09502        2.01154       -0.19749
