28
2msa1dma_76.log	Energy: -918446.6867874
S         -2.10759       -0.47775       -0.01521
O         -2.09599        0.74107       -0.79381
O         -1.28307       -0.52084        1.20386
O         -1.73728       -1.73618       -0.91115
H         -0.74848       -1.85175       -0.93523
C         -3.76923       -0.91414        0.41817
H         -4.15196       -0.10580        1.04188
H         -4.34489       -0.99579       -0.50367
H         -3.75172       -1.85712        0.96283
S          1.86103       -1.00667       -0.15357
O          2.16958        0.17667       -0.92940
O          0.91309       -1.97390       -0.72768
O          1.36695       -0.61945        1.30253
H          0.37458       -0.51084        1.31472
C          3.35483       -1.86333        0.26194
H          3.82145       -2.15398       -0.67964
H          3.99533       -1.17404        0.81207
H          3.09980       -2.73610        0.86154
N          1.07870        3.08387       -0.01994
C          0.18492        3.77155       -0.93651
C          0.44644        2.78983        1.25350
H          1.40991        2.22356       -0.44383
H         -0.04781        4.76652       -0.53834
H          0.68121        3.90804       -1.90140
H         -0.76823        3.24131       -1.10458
H          0.24026        3.72724        1.78385
H         -0.50816        2.24222        1.15780
H          1.12461        2.19767        1.87462
