40
2msa1dma1eda_335.log	Energy: -1038015.4597076
S         -0.75840       -1.72142       -0.04770
O         -1.89457       -1.82762       -0.96799
O         -1.06985       -1.22928        1.30391
O          0.35824       -0.87100       -0.65261
C         -0.04305       -3.34834        0.11210
H         -0.80581       -4.00380        0.53332
H          0.25098       -3.69345       -0.87952
H          0.81834       -3.28645        0.77803
S          3.44058        0.28397       -0.04548
O          3.01247        0.65676        1.30777
O          3.17651        1.25817       -1.09608
O          2.85469       -1.12469       -0.42898
H          1.82795       -1.08058       -0.53833
C          5.16718       -0.12145       -0.00989
H          5.69848        0.79398        0.25193
H          5.32645       -0.89181        0.74389
H          5.45737       -0.46840       -1.00114
N         -3.97818        0.25737       -0.13381
C         -5.07794        0.51405       -1.05016
C         -4.41733       -0.28912        1.14390
H         -3.33130       -0.40804       -0.55589
H         -5.73107        1.29179       -0.63705
H         -4.68510        0.87555       -2.00484
H         -5.69824       -0.37683       -1.24513
H         -4.99114        0.46674        1.69360
H         -5.05381       -1.18268        1.03191
H         -3.53803       -0.56084        1.73274
H          0.40229        3.50553        0.34022
H          0.90911        2.37508       -0.94215
H         -1.42443        3.36090       -1.34980
H         -1.42641        1.60098       -1.21777
H         -2.56851        3.44626        0.67178
H         -2.92820        1.84291        0.34730
H          1.17915        1.48470        1.37051
H         -0.53435        1.54536        1.46449
C          0.17526        2.55819       -0.15547
C         -1.27150        2.52798       -0.65339
N          0.29379        1.47704        0.85360
N         -2.17460        2.53153        0.49147
H          0.24890        0.55408        0.37320
