35
2msa1ma1dma_104.log	Energy: -978626.5339694
S          0.59589        1.78482        0.00270
O         -0.29539        2.07233       -1.12593
O          1.81590        1.00684       -0.35214
O         -0.11244        1.11882        1.15141
C          1.17737        3.34520        0.64002
H          1.72534        3.84807       -0.15718
H          0.30778        3.93171        0.93733
H          1.82420        3.15185        1.49570
S         -2.85414       -0.63140       -0.11047
O         -4.08179       -1.33519        0.18784
O         -1.65829       -1.43203       -0.42730
O         -2.53078        0.30931        1.11009
H         -1.57639        0.66728        1.08782
C         -3.10894        0.49925       -1.45585
H         -3.32851       -0.09824       -2.34152
H         -3.95720        1.13338       -1.19771
H         -2.19499        1.08526       -1.58378
N          4.06091       -0.80943        0.22606
H          3.64012        0.09419        0.42887
C          4.42635       -0.85569       -1.19103
H          5.18761       -0.12174       -1.48835
H          4.79748       -1.85399       -1.44424
H          3.53261       -0.66166       -1.79034
H          4.88579       -0.90369        0.80890
N          0.99874       -1.59793        0.27353
C          1.48091       -2.72923       -0.54391
C          1.17159       -1.78859        1.72997
H          1.48264       -0.71936       -0.00293
H          0.92213       -3.62663       -0.27421
H          1.31173       -2.49760       -1.59563
H          2.54619       -2.85820       -0.35164
H          0.59728       -2.66130        2.04501
H          2.23457       -1.92876        1.92813
H          0.80121       -0.89180        2.22636
H         -0.00659       -1.43811        0.06966
