42
2msa2eda_564.log	Energy: -1072742.0938498
S         -0.74597       -2.36294        0.33933
O         -0.10002       -2.53494        1.65176
O          0.17909       -1.87860       -0.72076
O         -1.97991       -1.51167        0.38856
C         -1.30954       -3.97987       -0.17132
H         -0.44247       -4.63874       -0.22529
H         -2.01938       -4.34188        0.57283
H         -1.78581       -3.88915       -1.14774
S          2.95972        0.57034       -0.53497
O          1.65459        1.20911       -0.65848
O          4.13080        1.38943       -0.27297
O          3.21635       -0.19440       -1.94262
H          4.12219        0.00037       -2.22260
C          2.84669       -0.77299        0.60895
H          2.60943       -0.33427        1.58139
H          2.03707       -1.42800        0.27134
H          3.81190       -1.27857        0.63074
H         -1.69777        1.53377       -2.80960
H         -1.86650       -0.22873       -2.66120
H         -4.10281        0.76732       -2.69752
H         -3.77481        0.06892       -1.10697
H         -3.78598        2.92646       -1.74042
H         -4.55400        2.13518       -0.53010
H         -0.21878        0.53829       -1.13522
H         -1.23386        1.63622       -0.39715
C         -2.03317        0.72449       -2.15416
C         -3.50159        0.88431       -1.78423
N         -1.20503        0.73288       -0.93301
N         -3.71115        2.15156       -1.09066
H         -1.52372       -0.05282       -0.31195
H         -0.25260        3.14407        2.89437
H         -1.94235        3.12475        2.34748
H         -1.28268        1.05283        3.54353
H         -1.87534        0.74709        1.90942
H          0.15159       -0.47134        2.41722
H          0.44228        0.57693        1.22596
H         -0.76226        3.87908        0.53067
H          0.43561        2.78322        0.67428
C         -0.95583        2.67684        2.19153
C         -1.04228        1.18420        2.48337
N         -0.56694        2.91853        0.79060
N          0.23427        0.52520        2.21993
