38
2msa2dma_13.log	Energy: -1003301.0945991
S         -3.03803       -0.07979        0.09133
O         -3.03910        1.21091        0.80109
O         -3.04401       -1.29052        0.92281
O         -1.88291       -0.11979       -0.90040
C         -4.50819       -0.12235       -0.92112
H         -5.36876       -0.08351       -0.25250
H         -4.49897        0.74151       -1.58579
H         -4.50922       -1.05164       -1.49100
S          3.03982        0.07661        0.09014
O          3.04119       -1.21948        0.79013
O          3.04554        1.28093        0.93088
O          1.88468        0.12385       -0.90115
C          4.51011        0.12677       -0.92177
H          5.37061        0.08241       -0.25338
H          4.50067       -0.73172       -1.59333
H          4.51155        1.06055       -1.48425
N         -0.09704        1.87682       -0.20078
C         -0.37797        3.10480       -0.96825
C         -0.02410        2.09094        1.26335
H         -0.84353        1.17699       -0.41665
H          0.41973        3.82916       -0.79708
H         -0.43189        2.85456       -2.02795
H         -1.33416        3.51222       -0.63691
H          0.73613        2.84261        1.47423
H         -1.01164        2.38233        1.62025
H          0.28263        1.15792        1.73434
H          0.78207        1.41600       -0.52391
N          0.09789       -1.87399       -0.20228
C          0.02484       -2.07371        1.26386
C          0.36657       -3.11182       -0.95809
H         -0.77896       -1.41005       -0.52719
H          1.00582       -2.38689        1.62028
H         -0.25415       -1.12853        1.72790
H         -0.75459       -2.80282        1.48367
H          1.32170       -3.52225       -0.62749
H         -0.43515       -3.82871       -0.77481
H          0.41632       -2.87339       -2.02074
H          0.84852       -1.18080       -0.42451
