38
2msa2dma_157.log	Energy: -1003278.2158737
S          1.68477       -1.75980       -0.27581
O          2.17453       -1.22314        1.00906
O          2.26413       -1.14882       -1.46684
O          0.13809       -1.74273       -0.31717
H         -0.31876       -0.85111       -0.75397
C          2.00146       -3.50681       -0.27036
H          3.08145       -3.63808       -0.20031
H          1.50198       -3.94349        0.59407
H          1.61679       -3.92512       -1.19996
S         -1.06725        1.52982       -0.67232
O         -0.98123        0.16576       -1.31910
O         -0.43220        2.57780       -1.47218
O         -0.55139        1.46258        0.73140
H          1.05182        1.56894        0.81966
C         -2.80687        1.86147       -0.54942
H         -3.21120        1.86970       -1.56232
H         -3.27102        1.07392        0.05613
H         -2.92269        2.84116       -0.08457
N         -3.80419       -0.92925        1.01379
C         -2.66734       -1.15720        1.89698
C         -3.73057       -1.71208       -0.21284
H         -4.66480       -1.14579        1.50421
H         -1.75559       -0.77844        1.42764
H         -2.81281       -0.60724        2.83070
H         -2.50861       -2.22353        2.13452
H         -2.88109       -1.36669       -0.80998
H         -3.60347       -2.79394       -0.03467
H         -4.64096       -1.55999       -0.79977
N          2.10972        1.56627        0.87884
C          2.52424        2.37698        2.03895
C          2.65793        2.02195       -0.42160
H          2.34173        0.56628        1.02430
H          2.21215        3.40994        1.87934
H          2.04154        1.98333        2.93354
H          3.60880        2.33047        2.15152
H          2.21049        2.98337       -0.67367
H          3.74369        2.10175       -0.34383
H          2.39297        1.28761       -1.18259
