40
2msa1dma1eda_145.log	Energy: -1038022.9207701
S          0.97200       -1.67812       -1.00288
O          0.10760       -2.56875       -0.21771
O          2.20064       -1.22735       -0.29820
O          0.22787       -0.48414       -1.54500
C          1.52194       -2.58648       -2.43459
H          2.08625       -3.45100       -2.08423
H          0.64027       -2.90267       -2.99241
H          2.15124       -1.93323       -3.03888
S         -2.63506       -0.02210        0.39193
O         -3.89331        0.68197        0.51530
O         -1.49249        0.45727        1.18543
O         -2.23500       -0.01973       -1.13323
H         -1.25501       -0.27001       -1.28320
C         -2.86155       -1.74407        0.76102
H         -3.13591       -1.81410        1.81431
H         -3.66551       -2.11666        0.12624
H         -1.91728       -2.25602        0.55887
N          1.05425        3.16740       -0.98662
C         -0.39463        3.26159       -1.18731
C          1.73529        2.55621       -2.13186
H          1.43200        4.09538       -0.82346
H         -0.80779        2.25596       -1.30312
H         -0.86120        3.72030       -0.31222
H         -0.66158        3.84295       -2.08133
H          1.38599        1.52426       -2.23615
H          1.54005        3.08933       -3.07363
H          2.81343        2.54093       -1.95151
H          2.52936        1.83183        2.37308
H          0.79270        2.04583        2.73164
H          1.67682        0.31413        4.17501
H          0.58052       -0.43371        3.00698
H          2.87092       -1.49354        3.40637
H          2.52958       -1.23653        1.82678
H          1.24414        1.98205        0.30242
H          1.79593        0.38527        0.47962
C          1.54486        1.36066        2.33271
C          1.56150        0.05515        3.11803
N          1.20219        1.11593        0.91107
N          2.69333       -0.77197        2.71834
H          0.22876        0.77070        0.85372
