43
2msa1eda1tma_83.log	Energy: -1062683.6760598
S          1.39577        2.11021        0.44095
O          2.69190        1.55129        0.84274
O          0.41316        2.28777        1.53955
O          0.76417        1.33364       -0.69089
C          1.69609        3.73712       -0.22490
H          2.11703        4.35086        0.57190
H          2.40267        3.64082       -1.04946
H          0.74908        4.15192       -0.57043
S          1.87041       -1.96455       -0.52180
O          1.97363       -3.23600       -1.20656
O          0.82159       -1.81934        0.50297
O          1.68420       -0.84463       -1.61043
H          1.37105        0.04705       -1.21347
C          3.41893       -1.55439        0.24397
H          4.19155       -1.60783       -0.52303
H          3.33568       -0.54476        0.65570
H          3.59705       -2.29445        1.02508
H         -0.80865       -1.26080        2.76815
H         -2.13416       -0.12132        3.04465
H         -2.85694       -2.51394        2.68090
H         -3.64376       -1.33392        1.62858
H         -1.28039       -2.81771        0.68488
H         -2.83357       -3.25297        0.36615
H         -0.68934        0.89587        1.48432
H         -0.46482       -0.51677        0.66997
C         -1.67678       -0.78320        2.30622
C         -2.68635       -1.82713        1.83766
N         -1.17465        0.02973        1.17901
N         -2.23533       -2.47358        0.61242
H         -1.91394        0.28826        0.45404
N         -2.80859        0.68685       -0.95999
C         -2.68802        2.12837       -1.15776
H         -3.18798        2.65658       -0.34011
H         -1.62838        2.39735       -1.15334
H         -3.13751        2.45223       -2.11129
C         -2.08634       -0.05181       -1.99748
H         -1.04860        0.28721       -2.02361
H         -2.10057       -1.11665       -1.75111
H         -2.53653        0.10279       -2.99184
C         -4.19938        0.26116       -0.88575
H         -4.23451       -0.81697       -0.70455
H         -4.70341        0.77574       -0.06135
H         -4.74824        0.47728       -1.81795
