43
2msa1eda1tma_05.log	Energy: -1062693.2177491
S         -2.89809       -0.77588        0.18284
O         -2.59892       -1.78806       -0.84642
O         -3.39019        0.51845       -0.33986
O         -1.74789       -0.58377        1.13405
C         -4.21727       -1.44222        1.18818
H         -5.07880       -1.61057        0.54142
H         -3.87588       -2.38082        1.62521
H         -4.45638       -0.71816        1.96718
S          2.87414        0.77096        0.35978
O          3.44112       -0.37617        1.08903
O          2.24024        1.80668        1.21207
O          1.93562        0.32717       -0.73150
C          4.22504        1.58502       -0.47590
H          4.92754        1.93093        0.28275
H          4.70301        0.86569       -1.14119
H          3.82368        2.42641       -1.04069
H         -2.35864        2.31920        0.93296
H         -1.07983        3.46249        1.42071
H         -2.51527        4.16449       -0.59021
H         -0.76941        4.19232       -0.88725
H         -2.48187        1.91634       -1.64201
H         -1.73847        2.98343       -2.67942
H         -0.80516        0.80272        0.82142
H         -0.32738        1.55350       -0.57365
C         -1.42210        2.79078        0.63214
C         -1.62242        3.53168       -0.69312
N         -0.42906        1.70200        0.44284
N         -1.69194        2.54990       -1.76671
H          0.51494        1.88422        0.83262
N          1.35363       -2.28988       -0.48017
C          0.36714       -2.72379       -1.50152
H         -0.59557       -2.24083       -1.31383
H          0.74687       -2.45131       -2.48732
H          0.24807       -3.80799       -1.43480
C          2.67780       -2.92712       -0.67629
H          3.01804       -2.72329       -1.69256
H          3.37441       -2.49135        0.04081
H          2.57851       -4.00452       -0.52561
C          0.84985       -2.49536        0.90439
H          1.59481       -2.09535        1.59398
H         -0.09800       -1.96299        1.01682
H          0.70628       -3.56624        1.06796
H          1.51113       -1.25214       -0.59520
