22
2msa1a_38.log	Energy: -869129.4617965
S          2.14528       -0.44381        0.08697
O          3.01658       -1.59903        0.09157
O          1.12895       -0.29648        1.12819
O          1.39524       -0.43732       -1.33125
H          0.49436       -0.05575       -1.23825
C          3.11170        1.04169        0.01555
H          3.65933        1.10742        0.95687
H          3.79995        0.95344       -0.82509
H          2.41245        1.87656       -0.10245
S         -2.23786       -0.20325       -0.14607
O         -1.25367        0.32435       -1.08316
O         -3.62175       -0.32737       -0.55924
O         -2.20423        0.77237        1.14814
H         -3.11528        1.02612        1.35679
C         -1.63427       -1.72169        0.53791
H         -1.53403       -2.42248       -0.29253
H         -0.66481       -1.51724        0.99886
H         -2.36635       -2.07977        1.26142
N          0.32892        2.78043        0.00730
H          0.23440        3.77682        0.17171
H          0.03794        2.29296        0.84980
H         -0.33278        2.51971       -0.71726
