29
2msa1a1ma_83.log	Energy: -929299.8496811
S         -2.26213       -0.61274       -0.20578
O         -3.22744       -1.68993       -0.24726
O         -1.23901       -0.84483       -1.37610
O         -1.51822       -0.40509        1.05447
H         -0.27375       -1.17269        1.87120
C         -3.03706        0.92950       -0.60344
H         -3.51950        0.81059       -1.57397
H         -3.77876        1.12068        0.17345
H         -2.26150        1.70943       -0.61951
S          2.13834       -0.25372       -0.30106
O          2.01954       -1.72158       -0.09436
O          2.20649        0.49107        0.97999
O          1.07222        0.27541       -1.20843
H         -0.33834       -0.38924       -1.25770
C          3.66955        0.02948       -1.16127
H          3.77385        1.10221       -1.32398
H          4.48015       -0.34740       -0.53767
H          3.62803       -0.50479       -2.11032
N          0.67078       -1.44283        2.23086
H          1.22419       -0.57438        2.30702
H          1.15478       -1.95518        1.46254
H          0.62339       -1.96402        3.10036
N         -0.40441        2.79902       -0.26622
H          0.24138        2.08416       -0.59642
C         -0.33283        2.90348        1.19072
H          0.67321        3.10784        1.58193
H         -1.00838        3.69336        1.53411
H         -0.67749        1.96072        1.62496
H         -0.13173        3.67349       -0.70157
