38
2msa1ma1tma_27.log	Energy: -1003285.5425551
S         -1.92605       -1.48273        0.04112
O         -2.69976       -0.59031       -0.84294
O         -2.03120       -1.17542        1.47960
O         -0.48615       -1.57031       -0.40687
C         -2.57893       -3.12793       -0.18505
H         -3.62768       -3.11360        0.11264
H         -2.48052       -3.39423       -1.23747
H         -2.00870       -3.81080        0.44489
S          2.66827       -0.55544        0.02528
O          3.94679       -0.62357        0.70174
O          2.17870        0.75456       -0.41219
O          1.59496       -1.22349        0.96872
H          0.69444       -1.35678        0.48279
C          2.67705       -1.63219       -1.39485
H          3.37266       -1.20802       -2.11983
H          3.01346       -2.61647       -1.06913
H          1.66332       -1.68018       -1.79673
N         -0.31111        1.19997        1.67948
H         -0.97952        0.43889        1.83187
C         -0.47877        2.24775        2.68958
H         -0.38112        1.87698        3.71667
H          0.27045        3.03102        2.53975
H         -1.47009        2.69930        2.58777
H          0.60942        0.77628        1.76002
N         -0.67856        2.18916       -0.83778
C         -2.10241        2.58860       -0.73859
H         -2.70443        1.67804       -0.70996
H         -2.24282        3.16039        0.18036
H         -2.36996        3.20275       -1.60241
C          0.23899        3.34945       -0.79652
H          0.05044        3.91500        0.11751
H          1.26296        2.97429       -0.79138
H          0.06468        3.98526       -1.66819
C         -0.43774        1.34911       -2.03798
H          0.59434        1.00413       -2.00585
H         -1.12164        0.50135       -2.00616
H         -0.61795        1.95783       -2.92906
H         -0.47543        1.64481        0.08339
