22
2msa1a_17.log	Energy: -869137.6099944
S         -2.13421       -0.45609       -0.04107
O         -3.17630       -1.44694        0.08650
O         -1.08572       -0.65295       -1.05872
O         -1.42634       -0.32203        1.37758
H         -0.47297       -0.06731        1.28886
C         -2.82910        1.15002       -0.30505
H         -3.30397        1.13132       -1.28695
H         -3.56872        1.31936        0.47800
H         -2.00775        1.87751       -0.26014
S          2.03990       -0.13861       -0.04086
O          1.21609        0.15844        1.14207
O          2.32816        0.96861       -0.93439
O          1.40527       -1.36023       -0.81667
H          0.42945       -1.18589       -0.97804
C          3.54993       -0.89453        0.49495
H          3.30429       -1.74720        1.12680
H          4.10793       -1.20066       -0.38972
H          4.09821       -0.13633        1.05468
N         -0.05121        2.87649        0.06165
H          0.33392        2.67558        0.97957
H         -0.10014        3.88552       -0.03455
H          0.63298        2.53575       -0.60958
