40
2msa1dma1eda_485.log	Energy: -1038009.9589345
S         -0.50083       -1.64814        0.76017
O         -0.16082       -0.95875       -0.53259
O         -0.97945       -0.72442        1.79388
O          0.65419       -2.50057        1.18684
H          2.07631       -2.00746        0.74806
C         -1.82719       -2.77130        0.38372
H         -2.68355       -2.18280        0.03240
H         -1.48352       -3.46179       -0.38704
H         -2.07165       -3.30869        1.30072
S          0.35618        2.45532        0.24494
O          0.47064        3.79075       -0.30678
O          1.57543        1.74591        0.64138
O         -0.42570        1.58073       -0.81734
H         -0.32919        0.58572       -0.64424
C         -0.73957        2.47553        1.64304
H         -0.25687        3.06981        2.41986
H         -1.67461        2.93872        1.32711
H         -0.89006        1.44275        1.96591
N         -4.01176       -0.55919       -0.93180
C         -3.23480       -0.42288       -2.15742
C         -3.77365        0.52568        0.01228
H         -4.99895       -0.59871       -1.15909
H         -2.17247       -0.55151       -1.92931
H         -3.52602       -1.20606       -2.86342
H         -3.35887        0.55748       -2.64747
H         -2.75483        0.45366        0.40304
H         -3.89873        1.52662       -0.43542
H         -4.45793        0.42919        0.85963
H          4.05972       -2.19562       -1.45245
H          2.28384       -2.39606       -1.50705
H          3.13947       -0.18398       -2.53041
H          1.91859       -0.02445       -1.26271
H          4.68425        0.76583       -1.07217
H          3.34438        1.28387       -0.23761
H          3.61842       -2.66928        0.74108
H          3.50078       -0.99464        0.69939
C          3.10269       -1.79892       -1.10357
C          2.95200       -0.31393       -1.45952
N          3.07530       -1.88828        0.38226
N          3.83573        0.47291       -0.60544
