37
2msa1ma1eda_269.log	Energy: -1013358.6713759
S          0.49868        1.72633       -0.54446
O          1.49679        2.41856       -1.35066
O          1.07774        0.90945        0.56967
O         -0.42339        0.85693       -1.36696
C         -0.55275        2.93541        0.23558
H         -1.29341        2.40866        0.84044
H          0.07803        3.56931        0.85930
H         -1.02701        3.52333       -0.55099
S         -2.96426       -0.46176        0.45352
O         -2.60812        0.46738        1.51683
O         -2.30608       -1.77736        0.48196
O         -2.78164        0.20282       -0.95137
H         -1.79324        0.51717       -1.10692
C         -4.71815       -0.72877        0.43893
H         -4.97105       -1.20532        1.38639
H         -5.20991        0.23913        0.34763
H         -4.96318       -1.37850       -0.40057
N          4.05238        0.21504        0.66931
H          4.67642        0.77340        0.09627
C          4.47599        0.24978        2.06855
H          4.51544        1.25761        2.50484
H          3.78133       -0.34650        2.66747
H          5.46656       -0.20447        2.16777
H          3.12608        0.63328        0.57891
H          0.50462       -3.14680       -1.25395
H          0.17805       -1.46418       -1.76837
H          2.54311       -2.32168       -2.34490
H          2.48116       -0.81434       -1.43480
H          3.59322       -3.27006       -0.54374
H          3.67756       -1.73710        0.11146
H          1.18635       -2.25042        0.85864
H          0.69930       -0.70502        0.43473
C          0.78991       -2.09930       -1.12693
C          2.28551       -1.89015       -1.37197
N          0.51234       -1.73025        0.28429
N          3.05571       -2.45917       -0.26740
H         -0.46861       -1.91398        0.54125
