37
2msa1ma1eda_483.log	Energy: -1013352.6520917
S          2.60424       -0.63694       -0.71794
O          3.43104       -0.62388       -1.90888
O          2.51355       -1.83118        0.10829
O          1.12657       -0.20573       -1.14976
H          0.40943       -0.83052       -0.78133
C          3.09195        0.72806        0.31563
H          4.13517        0.55515        0.58357
H          2.98612        1.65453       -0.24811
H          2.44694        0.72908        1.19469
S         -2.18326       -1.03872       -0.20564
O         -2.45849       -0.43103        1.10750
O         -0.81661       -1.63066       -0.30317
O         -2.45385       -0.10554       -1.34675
H         -1.40088        1.05431       -1.58621
C         -3.31437       -2.39504       -0.42356
H         -3.12924       -3.11540        0.37331
H         -4.32752       -1.99818       -0.35911
H         -3.13008       -2.84233       -1.40000
N          0.41406       -0.25802        2.26917
H         -0.59063       -0.39400        2.16216
C          0.78974       -0.26045        3.68198
H          0.51712       -1.17983        4.21783
H          1.87189       -0.12553        3.77696
H          0.30726        0.58167        4.18765
H          0.84262       -1.04565        1.78708
H         -0.84922        3.94992       -1.15392
H         -2.42256        3.10432       -1.14007
H         -1.53942        3.56190        1.19686
H         -1.76534        1.84008        0.87666
H          0.73511        3.18850        1.28981
H          0.37578        1.56321        1.39116
H         -0.58605        2.12464       -2.61919
H          0.13087        1.65417       -1.18433
C         -1.36613        3.02789       -0.87522
C         -1.16255        2.71568        0.61122
N         -0.76349        1.90711       -1.64182
N          0.24621        2.42345        0.84316
