42
2msa2eda_131.log	Energy: -1072766.9688021
S         -2.69885        0.29657       -0.75329
O         -3.21188       -0.85753        0.04861
O         -1.63134       -0.07797       -1.69525
O         -2.29329        1.43171        0.13189
C         -4.09639        0.86501       -1.70109
H         -4.42176        0.04617       -2.34285
H         -4.88674        1.15358       -1.00843
H         -3.77352        1.71732       -2.29925
S          1.87266       -1.66409       -0.77966
O          3.12443       -2.41192       -0.81503
O          2.01351       -0.21113       -1.09042
O          1.13073       -1.83940        0.52729
H         -0.35161       -1.60248        1.10006
C          0.77598       -2.32009       -2.02270
H          1.26721       -2.19642       -2.98849
H          0.61934       -3.37827       -1.80977
H         -0.15871       -1.75572       -1.99112
H          0.76371        3.44506       -0.99264
H          0.60546        3.66871        0.76629
H          2.88677        4.08672        0.22987
H          2.85042        2.51585        1.03386
H          4.19004        2.72512       -1.10928
H          3.09092        1.50835       -1.17252
H         -0.55168        1.68214       -0.00006
H          0.90404        1.00398       -0.54330
C          1.05380        3.05123       -0.01678
C          2.57364        3.04519        0.10413
N          0.48130        1.68961        0.12076
N          3.19866        2.51875       -1.09711
H          0.68325        1.29768        1.06624
H          0.33685       -1.27100        3.91551
H         -0.11545        0.40475        4.23183
H         -2.06423       -0.68454        3.38424
H         -1.50489        0.42887        2.13207
H         -1.29062       -2.49919        2.13541
H         -2.05507       -1.45720        1.02998
H          1.91109        0.51516        3.12997
H          1.47622       -0.54097        1.95067
C          0.06565       -0.31954        3.43192
C         -1.25086       -0.47989        2.68399
N          1.12778        0.19950        2.56770
N         -1.23352       -1.58710        1.68655
