42
2msa2eda_404.log	Energy: -1072751.7392979
S         -2.66047       -0.33708        0.70922
O         -2.58982        0.99865        0.05108
O         -3.64759       -0.46108        1.77092
O         -1.26507       -0.74366        1.14545
C         -3.09144       -1.49904       -0.57960
H         -4.08126       -1.23078       -0.95017
H         -2.35074       -1.43726       -1.37842
H         -3.10773       -2.49847       -0.14342
S          1.73984       -1.92682        0.20253
O          2.49220       -2.54363        1.27700
O          1.74195       -0.45780        0.12517
O          0.25712       -2.43505        0.16417
H         -0.41181       -1.75531        0.59188
C          2.32466       -2.56548       -1.35126
H          3.37927       -2.30065       -1.43383
H          2.20286       -3.64866       -1.34062
H          1.74286       -2.11451       -2.15522
H          0.46924        3.65999        1.51489
H         -0.25911        2.49152        2.64643
H          2.16832        2.86398        3.07519
H          1.79061        1.17596        2.71914
H          3.74569        2.38605        1.52183
H          2.79438        1.38636        0.65262
H         -1.00769        1.86380        0.50526
H          0.50988        2.04653       -0.21854
C          0.46206        2.61531        1.83471
C          1.85370        2.18247        2.27940
N          0.00885        1.79979        0.68608
N          2.80335        2.26153        1.17153
H          0.15786        0.79748        0.85840
H          1.20022        1.33786       -3.73024
H          1.84042        0.49738       -2.29837
H         -0.32182       -0.47847       -3.11172
H         -0.36662        0.06897       -1.43944
H         -1.85916        1.16011       -3.63732
H         -2.12553        1.26718       -2.00448
H          1.91329        2.84968       -1.90239
H          0.30138        2.98162       -2.24602
C          1.03085        1.13762       -2.66182
C         -0.30690        0.41887       -2.47545
N          1.02063        2.36947       -1.86636
N         -1.42463        1.31981       -2.73835
