34
2msa1a1eda_32.log	Energy: -988710.8819505
S         -1.32599        1.82350       -0.24348
O         -0.02598        2.48131       -0.55955
O         -1.38344        1.35590        1.16250
O         -1.68983        0.75900       -1.21953
H         -1.24574       -0.81351       -0.73541
C         -2.57077        3.08684       -0.43730
H         -2.35988        3.88542        0.27416
H         -2.51905        3.45910       -1.46051
H         -3.54495        2.64029       -0.23766
S          2.73454       -0.75649       -0.11265
O          3.46691       -2.00788       -0.26656
O          3.50676        0.36918        0.49663
O          1.42519       -0.89449        0.62379
H          0.92620        1.08771        1.90729
C          2.27491       -0.18783       -1.74774
H          3.19193        0.03015       -2.29621
H          1.72415       -0.98610       -2.24846
H          1.65454        0.70617       -1.65194
N          1.55549        1.82203        1.57492
H          2.44013        1.34439        1.23215
H          1.73157        2.50642        2.30308
H          1.05636        2.24899        0.76052
H         -1.35375       -2.61877        1.60343
H         -1.82221       -0.89951        1.50472
H         -3.84341       -2.38838        1.40136
H         -3.62890       -1.44975       -0.08051
H         -3.03494       -4.30081        0.22845
H         -3.91433       -3.55448       -0.93142
H          0.05690       -1.51847        0.05300
H         -1.06560       -2.49424       -0.82708
C         -1.80947       -1.85183        0.97085
C         -3.20438       -2.26240        0.51758
N         -0.95037       -1.67737       -0.22285
N         -3.10863       -3.45462       -0.32626
