42
2msa2eda_492.log	Energy: -1072747.5289855
S          2.24471       -1.81793        0.12466
O          2.44751       -3.25478        0.08160
O          2.22106       -1.17303        1.43820
O          0.95035       -1.40707       -0.69386
H          0.06820       -1.62546       -0.23814
C          3.45144       -1.00499       -0.89462
H          4.42282       -1.21263       -0.44359
H          3.39517       -1.43631       -1.89403
H          3.24706        0.07067       -0.90403
S         -2.53383       -1.05668       -0.14866
O         -1.34279       -1.77796        0.38082
O         -2.30407       -0.43450       -1.46774
O         -3.08420       -0.08876        0.84966
H         -2.46074        1.41119        0.73828
C         -3.79330       -2.29937       -0.35298
H         -3.42674       -3.03018       -1.07407
H         -3.96860       -2.76753        0.61550
H         -4.69654       -1.81208       -0.72008
H         -0.22360        3.30345        1.32068
H         -1.34982        2.76932        2.58454
H         -0.63756        0.47187        2.37054
H          0.03479        0.74312        0.78156
H          1.23722        1.78616        3.23545
H          1.80038        0.62448        2.22784
H         -2.62943        3.08788        0.65468
H         -1.52158        2.31455       -0.37697
C         -0.88280        2.49082        1.63609
C         -0.07772        1.19911        1.76886
N         -1.95026        2.33143        0.61330
N          1.26355        1.49048        2.26418
H          0.79212        3.50799       -0.58541
H          1.76618        3.54074       -2.04959
H          1.05414        1.37101       -2.72059
H          0.69449        0.87851       -1.08703
H         -0.95691        2.72965       -2.65146
H         -1.33147        1.21158       -2.12606
H          3.33939        3.10533       -0.46538
H          2.36971        2.13715        0.43001
C          1.44383        2.89141       -1.22759
C          0.62186        1.72246       -1.77520
N          2.62321        2.39074       -0.52785
N         -0.80441        2.05956       -1.90325
