42
2msa2eda_422.log	Energy: -1072751.4024006
S          3.72717        0.32674        0.02425
O          5.15991        0.14379       -0.09664
O          3.02213       -0.20460        1.18766
O          3.07049       -0.27167       -1.29275
H          2.10897       -0.52510       -1.14081
C          3.35425        2.06128       -0.10770
H          3.84833        2.55468        0.73099
H          3.75869        2.42332       -1.05309
H          2.26896        2.18859       -0.03955
S         -0.09404       -1.75011        0.02326
O         -0.59339       -0.93453        1.15311
O          0.57457       -0.89912       -1.01508
O         -1.16981       -2.58428       -0.58213
H         -2.53024       -1.54832       -0.74238
C          1.14456       -2.86033        0.64780
H          1.93663       -2.25130        1.08843
H          0.67273       -3.49854        1.39505
H          1.52049       -3.45265       -0.18683
H         -4.18930       -1.48024        0.96552
H         -2.86276       -0.37210        1.34610
H         -5.09502        0.74103        1.69118
H         -4.18163        1.53159        0.40353
H         -6.43187       -0.29976        0.00656
H         -6.22067        1.20330       -0.59704
H         -3.93412       -0.77116       -1.35032
H         -2.54404        0.13119       -0.95164
C         -3.70680       -0.54237        0.67513
C         -4.70421        0.60737        0.67369
N         -3.15785       -0.71026       -0.68872
N         -5.73483        0.35417       -0.33469
H         -0.65917        3.33191       -1.07818
H         -2.39867        3.10122       -0.81119
H         -1.23854        3.45132        1.28772
H         -1.91388        1.81916        1.25579
H          0.56227        2.26774        1.94729
H          0.20153        0.93851        1.08757
H         -1.44415        1.50636       -2.38034
H         -0.51952        0.85582       -1.21381
C         -1.41134        2.64209       -0.67250
C         -1.13733        2.46741        0.81728
N         -1.40122        1.35198       -1.37654
N          0.20948        1.95808        1.04905
