40
2msa1dma1eda_128.log	Energy: -1038023.5553955
S         -2.08153       -0.40941       -0.92033
O         -2.15579        1.07565       -0.87979
O         -2.12162       -1.02418        0.42569
O         -0.92195       -0.88479       -1.73237
H          0.23593       -1.77007       -1.20243
C         -3.53697       -0.94908       -1.79484
H         -4.41136       -0.61815       -1.23437
H         -3.51998       -0.50035       -2.78787
H         -3.50718       -2.03676       -1.86109
S          1.63973       -1.87177        0.45516
O          2.92191       -2.52591        0.60586
O          1.01355       -2.35452       -0.90787
O          1.60297       -0.40329        0.50058
H          0.42683        0.98037        0.85387
C          0.50126       -2.48401        1.67422
H          0.54707       -3.57287        1.65196
H          0.82548       -2.09502        2.64026
H         -0.49540       -2.11803        1.41752
N          1.95026        2.62834       -1.31977
C          1.43062        1.71546       -2.34538
C          3.26973        2.21983       -0.82956
H          2.00991        3.56532       -1.70594
H          1.26658        0.73091       -1.89950
H          0.46724        2.07959       -2.71055
H          2.11913        1.60224       -3.19464
H          3.17727        1.24489       -0.34352
H          4.01280        2.13739       -1.63607
H          3.62828        2.94503       -0.09405
H         -2.39722        2.11623        1.88975
H         -1.66921        2.57400        3.43328
H         -0.58964        3.69801        1.46043
H          0.55174        2.73273        2.43096
H         -0.79528        1.70193       -0.00704
H          0.77275        2.34924       -0.03436
H         -1.55724        0.34549        3.70019
H         -1.55370        0.00705        2.09590
C         -1.49285        2.01902        2.50683
C         -0.32599        2.68663        1.78185
N         -1.17101        0.62794        2.80873
N          0.04029        1.89928        0.58599
