29
2msa1a1ma_110.log	Energy: -929297.4092529
S         -2.08023       -0.93073        0.11043
O         -1.50600       -0.03088        1.13312
O         -2.56406       -2.21284        0.58474
O         -1.07733       -1.09040       -1.08382
H         -0.09889       -1.26517       -0.83348
C         -3.36156       -0.03298       -0.71884
H         -4.14063        0.15775        0.02013
H         -2.90669        0.89226       -1.09168
H         -3.74053       -0.65850       -1.52716
S          2.24934       -0.35054       -0.16923
O          1.38579       -1.46817       -0.64519
O          2.66525       -0.52199        1.25342
O          1.63920        0.98151       -0.40118
H          0.90148        1.76920        1.61410
C          3.73723       -0.44758       -1.13942
H          4.18048       -1.43048       -0.97977
H          3.46590       -0.31143       -2.18630
H          4.41211        0.34072       -0.80632
N          0.71397        0.99803        2.25909
H          0.60145        1.31951        3.21558
H          1.52667        0.33575        2.13112
H         -0.14872        0.52164        1.90818
N         -1.07253        2.29308       -1.26569
H         -0.33090        1.59890       -1.19019
C         -1.06407        3.14485       -0.08234
H         -0.08684        3.60410        0.14239
H         -1.79155        3.95341       -0.20044
H         -1.38326        2.55028        0.78043
H         -0.86827        2.84100       -2.09457
