42
2msa2eda_411.log	Energy: -1072751.2104706
S         -3.10230       -0.08959       -0.68391
O         -2.97250        1.09783       -1.52041
O         -2.92192        0.09494        0.75914
O         -2.17589       -1.24289       -1.20071
H         -1.18556       -1.11498       -0.87584
C         -4.69103       -0.82941       -0.97452
H         -5.43942       -0.10554       -0.65086
H         -4.78678       -1.03075       -2.04115
H         -4.75999       -1.74700       -0.39138
S          0.69757       -1.68773        0.80833
O          1.58203       -2.75470        0.34524
O          0.13052       -0.87413       -0.36409
O          1.27110       -0.75760        1.79948
H          0.77716        1.43122        1.40542
C         -0.73589       -2.44175        1.55779
H         -1.17041       -3.14213        0.84351
H         -0.39328       -2.96910        2.44852
H         -1.44872       -1.65625        1.81326
H          5.17777       -0.26186        0.20713
H          3.56767       -0.55092        0.90415
H          3.76270       -1.66527       -1.26752
H          2.54255       -0.40854       -1.33827
H          5.24123       -0.20272       -2.45730
H          3.81210       -0.00111       -3.21433
H          4.33652        1.81669        0.95249
H          4.19777        1.82170       -0.68521
C          4.10434       -0.04595        0.09690
C          3.61965       -0.57820       -1.24491
N          3.83695        1.40258        0.17167
N          4.29363        0.14070       -2.33388
H         -1.52169        2.44178       -0.33101
H         -1.32679        4.07379        0.28919
H          0.71052        3.18407       -0.96798
H          1.07012        3.72434        0.68617
H          0.63250        0.88494       -0.10974
H          2.10284        1.59296        0.35093
H         -1.51579        3.21899        2.40404
H         -1.91087        1.76650        1.72406
C         -0.98016        3.04072        0.40716
C          0.51685        2.99261        0.09016
N         -1.22000        2.51090        1.74599
N          1.04573        1.66020        0.43999
