41
2msa1dma1tma_29.log	Energy: -1027945.0291021
S         -0.91459       -2.19849        0.01031
O          0.50568       -1.91243        0.24921
O         -1.42821       -1.92940       -1.32682
O         -1.78813       -1.51418        1.10343
H         -1.93073       -0.44755        0.97834
C         -1.20988       -3.90594        0.41213
H         -0.60925       -4.50405       -0.27381
H         -0.90771       -4.07963        1.44447
H         -2.27134       -4.10947        0.27432
S         -1.96356        1.70217       -0.31709
O         -2.26371        3.11368       -0.10498
O         -2.13162        0.89785        0.96138
O         -0.62015        1.41660       -0.89401
H          0.43390        0.99152        0.37202
C         -3.14351        1.02475       -1.46621
H         -4.13869        1.15298       -1.03959
H         -3.05070        1.57881       -2.40070
H         -2.90202       -0.02920       -1.61756
N          1.20786        1.10240        1.06695
C          0.86631        0.45061        2.34651
C          1.44286        2.55606        1.17919
H          2.04553        0.64481        0.59815
H         -0.08143        0.85535        2.70579
H          0.76291       -0.61836        2.16701
H          1.66068        0.64333        3.07098
H          0.54578        3.03521        1.57503
H          2.29326        2.74002        1.83901
H          1.64039        2.95473        0.18405
N          3.24871        0.07297       -0.52101
C          4.33728        1.03109       -0.67829
H          3.93222        2.00665       -0.96266
H          4.87680        1.13971        0.26748
H          5.05505        0.71630       -1.45418
C          3.74988       -1.23662       -0.10947
H          4.28705       -1.14244        0.83938
H          2.90655       -1.91678        0.02639
H          4.43916       -1.66175       -0.85840
C          2.45128       -0.02959       -1.74719
H          1.63240       -0.73370       -1.58718
H          2.01531        0.94430       -1.98742
H          3.06314       -0.36644       -2.59971
