32
2msa2ma_143.log	Energy: -953960.8002078
S          2.35983       -0.52775       -0.15990
O          3.77469       -0.71630       -0.38482
O          1.59824       -1.72001       -0.85929
O          1.75892        0.74330       -0.61277
H          0.31106        1.22866       -1.31137
C          1.97072       -0.72206        1.56002
H          2.46708       -1.62820        1.90733
H          2.33926        0.15840        2.08704
H          0.88660       -0.80048        1.66330
S         -1.86804       -0.89085       -0.05261
O         -2.47145        0.46198       -0.22366
O         -1.28127       -1.12668        1.27427
O         -0.89885       -1.15391       -1.17214
H          0.60555       -1.53672       -0.94193
C         -3.18933       -2.06547       -0.26480
H         -3.93036       -1.87946        0.51288
H         -3.62292       -1.92507       -1.25471
H         -2.76603       -3.06476       -0.16238
N         -0.40855        1.38186        2.88232
H         -0.86592        0.54038        2.53833
C         -0.27572        2.34990        1.80116
H         -1.22297        2.60350        1.29661
H          0.16652        3.27397        2.18734
H          0.41773        1.95122        1.05231
H         -0.98561        1.75643        3.62701
N         -0.55007        1.64271       -1.73276
H         -0.68442        1.17532       -2.62803
C         -0.43208        3.10936       -1.86409
H         -1.34290        3.51274       -2.30614
H         -0.29015        3.53200       -0.87002
H          0.42862        3.35164       -2.48708
H         -1.35309        1.33861       -1.12361
