29
2msa1a1ma_69.log	Energy: -929300.3344197
S         -2.33982       -0.77094        0.08510
O         -3.73871       -1.06799        0.37889
O         -1.69070        0.15102        1.09167
O         -2.07254       -0.28066       -1.29896
H         -1.01038        1.25011       -1.27595
C         -1.43221       -2.30596        0.23653
H         -1.56989       -2.68531        1.24996
H         -1.84112       -3.00994       -0.48920
H         -0.38088       -2.10258        0.02864
S          2.13390        0.36237        0.54575
O          1.80320        1.78592        0.46468
O          3.53942       -0.02511        0.49384
O          1.34832       -0.37128       -0.61155
H          1.99225       -0.95910       -1.19305
C          1.36707       -0.30237        2.00043
H          1.77484        0.23885        2.85504
H          0.28526       -0.15485        1.90726
H          1.61624       -1.36206        2.06196
N          3.05907       -1.76418       -1.97328
H          3.91334       -1.54442       -1.46467
H          3.17379       -1.46143       -2.93557
H          2.93412       -2.77161       -1.97347
N         -0.83713        2.01023       -0.59198
H         -1.16667        1.51210        0.27773
C         -1.63069        3.21426       -0.89524
H         -1.51297        3.93964       -0.09036
H         -1.29472        3.65113       -1.83584
H         -2.67786        2.92363       -0.97882
H          0.16886        2.17983       -0.47933
