28
2msa1dma_20.log	Energy: -918465.4317816
S          2.89340       -0.45202       -0.05276
O          4.22515       -0.96306        0.19627
O          2.71285        0.90685       -0.55100
O          2.07115       -0.62868        1.29674
H          1.26222       -0.03864        1.30634
C          2.04818       -1.55731       -1.16543
H          2.57040       -1.50835       -2.12190
H          2.10322       -2.56321       -0.74907
H          1.01709       -1.21078       -1.26415
S         -0.88768        1.15672        0.11735
O         -0.12405        0.82576        1.34445
O         -2.29430        1.55352        0.41841
O         -0.86100        0.03448       -0.87856
H         -2.39547       -0.84640       -0.67470
C         -0.09361        2.54864       -0.64493
H         -0.62933        2.78727       -1.56351
H         -0.13991        3.37777        0.06150
H          0.94137        2.26274       -0.84223
N         -3.27623       -0.87098       -0.11237
C         -3.04638       -1.71578        1.08198
C         -4.45234       -1.22896       -0.92616
H         -3.28570        0.13371        0.18676
H         -2.89348       -2.74984        0.77034
H         -2.15712       -1.34424        1.59321
H         -3.91035       -1.64744        1.74415
H         -4.33695       -2.24591       -1.30388
H         -5.35178       -1.16380       -0.31233
H         -4.52564       -0.53172       -1.76075
