40
2msa1dma1eda_478.log	Energy: -1038009.3684669
S         -2.31320       -0.83592        0.71579
O         -2.45769       -1.74459       -0.43832
O         -3.19134        0.35317        0.68544
O         -0.87391       -0.45115        0.92740
C         -2.76416       -1.76557        2.17240
H         -3.80025       -2.08503        2.05681
H         -2.10096       -2.62765        2.24755
H         -2.65533       -1.11769        3.04223
S          1.98534       -1.58582       -0.49503
O          1.92423       -0.19366       -0.91082
O          2.18475       -1.92787        0.90132
O          3.24188       -2.23140       -1.31337
H          3.75703       -2.76249       -0.68987
C          0.62774       -2.47071       -1.20570
H          0.74631       -3.52555       -0.95852
H         -0.29799       -2.06978       -0.78134
H          0.66263       -2.31436       -2.28402
N          2.19783        2.22122        0.84380
C          1.97609        1.54159        2.12112
C          3.01570        3.42130        0.96582
H          2.62889        1.56045        0.20124
H          1.38105        2.18707        2.77605
H          1.42176        0.61491        1.95200
H          2.91577        1.29862        2.63841
H          2.48742        4.16062        1.57665
H          3.99193        3.22946        1.43726
H          3.18502        3.85653       -0.02256
H         -0.14935        2.86301       -2.08907
H          0.26051        1.12815       -2.04675
H         -1.97554        1.71498       -3.19948
H         -2.09483        0.50308       -1.92293
H         -3.48070        2.87783       -1.99146
H         -3.31560        1.87031       -0.69198
H          0.57382        2.23927        0.12480
H         -1.12051        2.57222        0.08628
C         -0.44952        1.88334       -1.70615
C         -1.88809        1.56206       -2.11930
N         -0.37668        1.94121       -0.22853
N         -2.81231        2.42456       -1.38345
H         -0.56715        0.99693        0.20136
