37
2msa1ma1eda_75.log	Energy: -1013369.0978976
S          2.24214       -0.79329       -0.46195
O          2.43518        0.64518       -0.79788
O          0.97658       -1.34087       -0.99618
O          2.38670       -1.05488        1.00199
H          0.90899       -1.41004        1.68164
C          3.58838       -1.65522       -1.25042
H          4.52299       -1.26222       -0.85016
H          3.48921       -2.71813       -1.02968
H          3.52027       -1.47588       -2.32344
S         -2.77186       -0.08714       -0.28030
O         -4.05048       -0.25187        0.40112
O         -1.61051        0.06370        0.70484
O         -2.67900        0.98909       -1.28917
H         -0.68289        1.72734       -1.56028
C         -2.41710       -1.61082       -1.14967
H         -2.53971       -2.44294       -0.45490
H         -3.13895       -1.69938       -1.96236
H         -1.39472       -1.56531       -1.52985
N         -0.06930       -1.70707        1.93579
H         -0.20001       -1.62259        2.94112
C         -0.30078       -3.08873        1.45944
H         -1.33402       -3.37511        1.65845
H         -0.10203       -3.09505        0.38751
H          0.38187       -3.77092        1.96634
H         -0.73349       -1.03468        1.45307
H          0.19765        3.89132       -0.86281
H         -1.23733        3.35634        0.04412
H          0.38681        4.20031        1.64182
H          0.25036        2.46598        1.85225
H          2.36174        2.21161        0.70388
H          2.47080        3.84158        0.49553
H          0.89133        1.51104       -0.94080
H         -0.50231        1.10978       -0.08500
C         -0.17585        3.16610       -0.13425
C          0.62295        3.24017        1.17085
N         -0.08131        1.81372       -0.73667
N          2.06282        3.11220        1.06889
