42
2msa2eda_354.log	Energy: -1072752.7274119
S         -0.01479        2.27170        0.72260
O          0.84688        1.18720        1.34107
O         -0.57006        3.17812        1.71742
O         -1.02252        1.62886       -0.17379
C          1.07422        3.19611       -0.34430
H          1.84745        3.64809        0.27798
H          1.50602        2.51469       -1.07990
H          0.47830        3.96862       -0.83117
S          2.69118       -0.55762       -0.90208
O          2.40293        0.44346       -1.91888
O          1.74658       -1.68585       -0.80834
O          2.87769        0.09709        0.50084
H          2.00249        0.60868        0.83210
C          4.31285       -1.23224       -1.15487
H          4.29729       -1.73522       -2.12209
H          5.02823       -0.41043       -1.15686
H          4.52468       -1.93854       -0.35279
H         -0.61445       -0.58282        2.12359
H         -2.19321       -1.31393        1.76150
H         -0.94711       -2.96918        2.97435
H         -0.98687       -3.51899        1.30866
H          1.28391       -2.75368        1.05942
H          1.29981       -2.19855        2.59695
H         -0.97544       -0.06792       -0.05455
H          0.01088       -1.39291       -0.20937
C         -1.11797       -1.37772        1.56781
C         -0.57076       -2.74880        1.96981
N         -0.91986       -1.09810        0.12168
N          0.87578       -2.88367        1.98006
H         -1.67948       -1.54691       -0.44963
H         -5.28333       -1.27285       -1.36602
H         -4.62919       -1.73763        0.21278
H         -4.96072        0.73649       -0.02528
H         -3.29946        0.31121        0.34511
H         -4.25903        1.41221       -2.13185
H         -2.78898        1.53746       -1.39340
H         -3.45187       -2.80540       -1.64874
H         -3.01096       -1.31244       -2.18406
C         -4.39239       -1.21893       -0.72273
C         -4.06549        0.24891       -0.43398
N         -3.22943       -1.86109       -1.35146
N         -3.54305        0.89994       -1.63202
