43
2msa1eda1tma_39.log	Energy: -1062689.9328688
S          3.00635       -0.15924       -0.04872
O          2.40336       -0.67434        1.20075
O          3.25133        1.29626       -0.05536
O          2.22744       -0.61770       -1.24996
C          4.61067       -0.93193       -0.21255
H          5.21691       -0.63441        0.64365
H          4.47519       -2.01376       -0.22981
H          5.06301       -0.58525       -1.14187
S         -2.73775        0.47663       -0.13496
O         -2.44985        0.05129       -1.51378
O         -2.66568        1.95525        0.07237
O         -1.89402       -0.25148        0.86226
C         -4.43105        0.04990        0.22966
H         -5.07292        0.60971       -0.45072
H         -4.55291       -1.02240        0.07481
H         -4.63842        0.31826        1.26552
H          1.03577       -3.54882        0.03750
H          0.72700       -2.41612        1.35900
H         -0.74420       -4.43276        1.59288
H         -1.71327       -2.98891        1.26121
H         -1.09158       -5.10545       -0.66326
H         -2.53852       -4.42437       -0.31447
H          0.81697       -1.35974       -0.83938
H         -0.58490       -2.25023       -1.26134
C          0.27953       -2.90103        0.49068
C         -0.98336       -3.68078        0.82903
N         -0.05404       -1.84171       -0.48768
N         -1.54729       -4.23818       -0.40112
H         -0.68395       -1.14735       -0.03405
N         -0.11626        2.77181        0.15928
C          0.41422        2.22738       -1.12073
H          0.20653        1.15957       -1.16170
H         -0.10037        2.72273       -1.94473
H          1.49417        2.37435       -1.15750
C          0.03999        4.24066        0.22608
H         -0.45514        4.69138       -0.63475
H         -0.41837        4.60749        1.14511
H          1.10438        4.48448        0.21560
C          0.48486        2.10018        1.34503
H          0.04695        2.53809        2.24295
H          0.24082        1.03929        1.30507
H          1.56819        2.22322        1.31723
H         -1.14571        2.53880        0.16506
