37
2msa1ma1eda_49.log	Energy: -1013372.5750217
S         -2.50908       -0.73859       -0.23146
O         -2.17638       -1.42304        1.04223
O         -1.66340       -1.13951       -1.37484
O         -2.50928        0.75472       -0.06362
H         -1.20032        1.24908       -0.93361
C         -4.18809       -1.19628       -0.61537
H         -4.82676       -0.88131        0.20981
H         -4.47515       -0.69679       -1.54072
H         -4.22049       -2.27928       -0.73669
S          2.59284       -0.91090       -0.36350
O          4.01265       -0.96518       -0.68907
O          1.95753        0.41664       -0.70603
O          2.26137       -1.27860        1.04548
H          0.90595       -0.62461        1.66623
C          1.73342       -2.09836       -1.38663
H          1.97009       -1.88026       -2.42896
H          2.09689       -3.09083       -1.11829
H          0.65818       -2.01533       -1.20877
N          0.06423       -0.11923        2.05453
H          0.08656        0.83151        1.63182
C          0.12716       -0.04342        3.52514
H         -0.74477        0.49107        3.90355
H          0.14157       -1.05252        3.93633
H          1.03994        0.47529        3.82046
H         -0.79225       -0.61768        1.73430
H          1.12640        2.90820       -1.79884
H         -0.54439        3.46223       -2.04867
H          0.41588        4.40299       -0.00778
H         -1.01546        3.41885        0.33247
H          1.61118        2.12760        0.53163
H          1.04447        3.05374        1.77059
H         -0.52128        1.13897       -2.44761
H          0.45809        0.82801       -1.14283
C          0.10446        2.85491       -1.41380
C          0.03291        3.37393        0.01696
N         -0.32791        1.44041       -1.49456
N          0.76744        2.51855        0.95486
