38
2msa2dma_212.log	Energy: -1003272.5345410
S          0.25530       -2.00802       -0.28049
O          1.11335       -3.10207        0.15436
O          0.05455       -0.94079        0.77563
O         -1.10328       -2.44249       -0.75436
H         -2.25223       -1.71600       -0.07169
C          1.02595       -1.18787       -1.65723
H          1.99421       -0.80271       -1.31308
H          1.15432       -1.93115       -2.44513
H          0.36990       -0.37864       -1.98366
S         -0.63989        2.18398       -0.08989
O         -1.69967        2.30328        0.90984
O         -1.02296        1.58629       -1.37003
O          0.60642        1.44897        0.50566
H          0.41754        0.41698        0.61445
C          0.07181        3.78589       -0.37511
H          0.43704        4.17471        0.57509
H          0.88147        3.67952       -1.09659
H         -0.72094        4.42003       -0.77302
N          3.82234       -0.17903       -0.09850
C          3.54478       -0.83133        1.17571
C          4.06330        1.24840        0.03947
H          4.62273       -0.62146       -0.53710
H          2.62490       -0.41712        1.59909
H          3.36998       -1.89750        1.01512
H          4.35164       -0.69991        1.91756
H          3.14681        1.72810        0.39753
H          4.87496        1.49295        0.74750
H          4.31201        1.67905       -0.93513
N         -3.16598       -1.30113        0.32987
C         -3.72156       -0.34831       -0.66201
C         -2.93028       -0.70823        1.67129
H         -3.79041       -2.10136        0.42223
H         -2.97683        0.42691       -0.84648
H         -3.92067       -0.88690       -1.58880
H         -4.63975        0.09427       -0.27166
H         -2.38759        0.22855        1.54763
H         -3.89190       -0.51786        2.15241
H         -2.32964       -1.40159        2.25871
