28
2msa1dma_89.log	Energy: -918445.1452915
S          1.48256       -1.49055       -0.06484
O          1.39814       -2.93354        0.06550
O          0.69578       -0.82197       -1.09944
O          3.03463       -1.12978       -0.37946
H          3.48938       -1.95741       -0.59360
C          1.25340       -0.65584        1.47121
H          0.20017       -0.78919        1.73073
H          1.91440       -1.11665        2.20507
H          1.48561        0.40789        1.29890
S         -2.50323        0.15816        0.13287
O         -2.43840        1.56684        0.48010
O         -1.93319       -0.81488        1.05806
O         -1.87594       -0.07901       -1.31527
H         -0.92684       -0.35363       -1.23800
C         -4.18849       -0.27106       -0.22718
H         -4.75236       -0.11586        0.69318
H         -4.54925        0.39034       -1.01453
H         -4.22428       -1.31508       -0.53577
N          1.82149        2.38160        0.49936
C          0.78424        2.58093       -0.50853
C          3.16528        2.48076       -0.05364
H          1.70603        3.06774        1.23772
H          0.85256        1.78034       -1.25150
H         -0.20280        2.52447       -0.04356
H          0.87567        3.54465       -1.03682
H          3.31670        1.66907       -0.77222
H          3.35465        3.43521       -0.57346
H          3.90583        2.36510        0.74284
