37
2msa1ma1eda_491.log	Energy: -1013351.0928562
S         -1.89652       -1.38255       -0.48430
O         -0.90949       -1.76143       -1.51720
O         -2.85227       -0.33561       -0.91632
O         -1.23133       -1.03162        0.81351
C         -2.86926       -2.84024       -0.13499
H         -3.36911       -3.13873       -1.05687
H         -2.19745       -3.62663        0.20959
H         -3.59929       -2.59077        0.63515
S          2.72798       -0.59701        0.36651
O          3.09018        0.13522       -0.83356
O          2.01083        0.09087        1.43231
O          4.10529       -1.15545        1.02466
H          4.11710       -0.89070        1.95559
C          1.91497       -2.10181       -0.07958
H          0.98914       -1.84723       -0.61178
H          2.59154       -2.66547       -0.72232
H          1.68290       -2.64259        0.83751
N         -3.02478        2.13406        0.70784
H         -3.58335        2.95613        0.50615
C         -3.36582        1.57565        2.02172
H         -4.43424        1.35579        2.14009
H         -2.81104        0.64242        2.15353
H         -3.06660        2.27207        2.81062
H         -3.22119        1.42768       -0.00631
H          0.55425        0.71265       -1.34937
H         -1.03045        1.43438       -1.60541
H          0.84450        2.85037       -2.52224
H         -0.07351        3.70958       -1.27730
H          2.49226        2.35833       -0.79113
H          2.17888        3.97109       -0.67802
H         -0.50403        0.53994        0.68294
H          0.47886        1.91805        0.85317
C         -0.07780        1.56385       -1.08923
C          0.61299        2.87220       -1.44826
N         -0.33575        1.52375        0.37198
N          1.77433        3.04807       -0.58123
H         -1.23528        2.03168        0.58570
