42
2msa2eda_456.log	Energy: -1072748.6254767
S         -2.74752       -0.05868        0.27094
O         -2.48510        1.29848        0.80431
O         -2.16751       -1.14028        1.10154
O         -2.35161       -0.18747       -1.16737
C         -4.51931       -0.28415        0.29964
H         -4.85278       -0.20457        1.33464
H         -4.97339        0.49555       -0.31218
H         -4.74620       -1.27114       -0.10390
S          1.20154       -2.34915       -0.40389
O          1.32978       -1.16223       -1.23196
O          1.56428       -2.28175        1.00487
O          2.16535       -3.47103       -1.08045
H          2.64969       -3.91614       -0.37052
C         -0.40354       -3.05672       -0.60673
H         -1.11010       -2.38175       -0.10432
H         -0.60889       -3.12542       -1.67462
H         -0.39816       -4.03725       -0.13044
H         -0.71532        2.95202       -2.34667
H         -1.38746        2.86244       -0.69340
H          0.37296        4.69609       -1.06693
H          0.70121        3.61037        0.27977
H          2.45893        4.11015       -1.68697
H          2.45224        2.69391       -0.83850
H         -0.85563        0.69810       -1.40217
H          0.73107        1.15446       -1.80105
C         -0.48360        2.75532       -1.29694
C          0.64226        3.66567       -0.81648
N         -0.06247        1.34084       -1.18875
N          1.90283        3.29737       -1.45616
H          0.22160        1.10631       -0.18743
H          2.91189       -0.18888        2.10465
H          3.63287        1.41140        2.33397
H          1.41296        1.30433        3.33696
H          1.46866        2.49771        2.03091
H          0.36153       -0.21422        1.72786
H         -0.51162        1.15325        1.79860
H          4.02725        0.87295        0.13185
H          2.52403        0.33453       -0.14695
C          2.84545        0.86694        1.80240
C          1.49899        1.42367        2.24700
N          3.05269        1.04141        0.36036
N          0.39914        0.78337        1.52642
