42
2msa2eda_228.log	Energy: -1072758.8228570
S          2.20332        1.55393       -0.48883
O          3.65695        1.65391       -0.57967
O          1.62282        2.33902        0.65934
O          1.69039        0.14809       -0.43450
H          0.67992       -0.48401        0.74510
C          1.48884        2.25674       -1.96145
H          1.75470        3.31393       -1.99341
H          1.91371        1.73084       -2.81705
H          0.40710        2.11079       -1.91753
S         -2.47278        0.45824       -0.72020
O         -1.90508       -0.89415       -0.49753
O         -1.69093        1.31314       -1.62136
O         -2.76288        1.12684        0.59887
H         -1.45039        1.66073        1.33482
C         -4.07600        0.22251       -1.47031
H         -3.92457       -0.26772       -2.43249
H         -4.68261       -0.39827       -0.81079
H         -4.53323        1.20242       -1.60851
H          1.12000       -2.12629       -1.43013
H          2.17266       -3.48342       -1.82282
H          0.07759       -4.48219       -1.46976
H          0.95368       -4.79283        0.03557
H         -1.11595       -2.73337       -0.36467
H         -1.14114       -4.00525        0.66667
H          3.19091       -3.25102        0.26267
H          2.82590       -1.68424       -0.09194
C          1.59163       -3.02183       -1.01114
C          0.50492       -4.00323       -0.57771
N          2.42893       -2.59836        0.11513
N         -0.52846       -3.32953        0.22215
H          0.63141        0.95904        3.35978
H         -1.09248        1.03684        3.76866
H         -0.70799       -1.23378        3.30993
H         -1.58073       -0.60321        1.90054
H          1.28569       -1.31762        2.01555
H          0.07630       -2.02546        1.11144
H         -0.71559        2.79608        2.34083
H          0.28633        1.99134        1.28526
C         -0.38131        0.84808        2.96112
C         -0.63672       -0.56434        2.44896
N         -0.58431        1.88054        1.91523
N          0.40408       -1.09987        1.55160
