25
2msa1ma_10.log	Energy: -893811.3381388
S          2.05337       -0.64587       -0.06749
O          3.31892       -0.91898       -0.72948
O          0.98186       -0.14699       -1.02100
O          2.13463        0.30573        1.08481
H          1.16386        1.53787        0.93298
C          1.42117       -2.17204        0.60375
H          1.32240       -2.88605       -0.21471
H          2.14694       -2.53051        1.33425
H          0.45682       -1.97875        1.07725
S         -2.12916       -0.22493        0.07291
O         -1.98502        1.24347        0.10115
O         -1.75994       -0.92605        1.29458
O         -1.38136       -0.80834       -1.16442
H         -0.34539       -0.57839       -1.11779
C         -3.80700       -0.60035       -0.36152
H         -4.43576       -0.22828        0.44770
H         -4.04081       -0.09963       -1.30035
H         -3.89931       -1.68185       -0.45725
N          0.50755        2.34874        0.69974
H         -0.43832        1.94475        0.55189
C          0.97334        3.02297       -0.53594
H          0.27091        3.80853       -0.81432
H          1.96502        3.44080       -0.36422
H          1.02652        2.26390       -1.31589
H          0.46919        2.98480        1.49279
