42
2msa2eda_290.log	Energy: -1072755.5255206
S         -2.83184        0.91563        0.42107
O         -2.74959        2.17626       -0.30499
O         -3.68913        0.81891        1.58756
O         -1.32747        0.55845        0.80500
C         -3.26266       -0.38981       -0.71451
H         -4.24335       -0.14241       -1.12229
H         -2.50299       -0.44474       -1.49500
H         -3.29606       -1.32627       -0.15710
S          0.02438       -2.41723       -0.26951
O          1.44743       -2.51003        0.11390
O         -0.20180       -1.61317       -1.50184
O         -0.84514       -1.95633        0.86090
H         -1.17400       -0.43939        0.92152
C         -0.52672       -4.07153       -0.63683
H          0.07978       -4.45306       -1.45830
H         -0.39165       -4.67761        0.25894
H         -1.57855       -4.02890       -0.91995
H          0.61179        2.32080       -2.54737
H         -0.74784        1.96324       -1.45902
H          0.09696        4.17217       -0.94179
H          0.36357        3.07064        0.40637
H          2.44439        3.93273       -1.48103
H          2.39568        4.17228        0.13094
H          0.58796        0.04009       -1.44708
H          2.03020        0.86980       -1.24831
C          0.32882        2.13022       -1.50718
C          0.68631        3.30501       -0.61305
N          1.01518        0.90023       -1.06100
N          2.13187        3.52649       -0.60457
H          0.99417        0.75762       -0.01060
H          4.01064       -1.17298        1.37739
H          4.93466        0.22712        0.82540
H          3.41987        0.81868        2.62608
H          3.05972        1.71608        1.13314
H          1.54942       -0.73393        1.71336
H          1.07427        0.71894        2.31482
H          4.29057       -0.69930       -1.12712
H          2.84611       -1.21580       -0.57167
C          3.93566       -0.22009        0.83215
C          3.02157        0.72680        1.60543
N          3.49835       -0.42895       -0.55503
N          1.62485        0.27413        1.58825
