32
2msa2ma_244.log	Energy: -953949.1778540
S          2.54206       -1.00013        0.06627
O          3.30652       -2.20136       -0.20751
O          1.95521       -0.80261        1.38854
O          1.36830       -0.93362       -1.01631
H          0.53351       -0.56070       -0.61694
C          3.51500        0.42506       -0.34909
H          4.32689        0.47303        0.37831
H          3.91124        0.27532       -1.35391
H          2.87096        1.31389       -0.29625
S         -1.61617        0.50226        0.96122
O         -1.15078        1.86842        1.18437
O         -1.00567       -0.14194       -0.26934
O         -3.10606        0.35989        0.86104
H         -3.52115       -0.21007       -0.59359
C         -1.10441       -0.49494        2.34072
H         -0.01291       -0.50829        2.35386
H         -1.51387       -0.03895        3.24238
H         -1.49836       -1.50191        2.20227
N          1.25414        2.80668       -0.48039
H          0.55422        2.53802        0.20936
C          0.71411        2.62130       -1.82423
H         -0.23007        3.15489       -2.01270
H          1.44769        2.95245       -2.56611
H          0.53788        1.55495       -1.99146
H          1.46643        3.78481       -0.31564
N         -3.29886       -0.67122       -1.52924
H         -3.71992       -0.15694       -2.29900
C         -3.64852       -2.10858       -1.52873
H         -3.30890       -2.57408       -2.45348
H         -3.14742       -2.57211       -0.67960
H         -4.72694       -2.22107       -1.42272
H         -2.26784       -0.53295       -1.51562
