40
2msa1dma1eda_406.log	Energy: -1038012.5051169
S          0.85571        0.61204       -0.32927
O          2.04247        0.99930       -1.09238
O         -0.28758        0.17613       -1.22850
O          0.35261        1.66389        0.60238
H         -1.22114        1.92447        0.34853
C          1.27024       -0.80195        0.66652
H          2.11851       -0.50543        1.29180
H          0.39499       -1.08190        1.25568
H          1.56437       -1.60783       -0.00885
S         -2.72608       -1.49374        0.17359
O         -3.54344       -0.33820       -0.24026
O         -2.09416       -1.38208        1.48209
O         -1.68239       -1.83109       -0.93488
H         -1.03109       -1.00548       -1.08205
C         -3.74112       -2.94621        0.11052
H         -4.52174       -2.82029        0.86122
H         -4.16890       -3.02869       -0.88801
H         -3.11520       -3.80677        0.34547
N         -2.22627        2.13145        0.08704
C         -2.21517        2.85889       -1.20032
C         -2.88868        2.84126        1.19809
H         -2.68840        1.21418       -0.05247
H         -1.69710        3.80953       -1.06667
H         -1.67766        2.24459       -1.92292
H         -3.24079        3.03062       -1.53121
H         -2.37294        3.78548        1.37818
H         -3.93309        3.02874        0.94319
H         -2.83355        2.21693        2.08998
H          6.16416        0.34589        0.41761
H          5.72970       -0.62322        1.84198
H          5.77213       -2.02171       -0.11872
H          4.11708       -1.90684        0.50240
H          4.40829       -1.61615       -1.97660
H          3.70133       -0.29592       -1.31329
H          4.47137        1.36314        1.92103
H          3.85726        1.14727        0.42513
C          5.34239       -0.19796        0.90883
C          4.91959       -1.34264       -0.00391
N          4.20158        0.65526        1.24711
N          4.55393       -0.85177       -1.32791
