30
2msa1eda_63.log	Energy: -953204.4421613
S         -1.50037       -1.59876        0.10753
O         -2.43384       -0.55049        0.56216
O         -0.90043       -2.44783        1.12909
O         -0.43974       -0.95693       -0.79727
C         -2.41917       -2.65138       -1.00449
H         -3.21572       -3.12248       -0.42766
H         -2.83340       -2.03975       -1.80598
H         -1.73844       -3.40438       -1.40198
S          2.56223        0.15264        0.05940
O          1.92836        0.53954        1.31403
O          2.45435        1.14006       -1.02588
O          2.05103       -1.24549       -0.43048
H          1.02523       -1.23287       -0.54913
C          4.27102       -0.23500        0.32679
H          4.75396        0.68295        0.66240
H          4.32573       -1.00644        1.09425
H          4.69956       -0.57988       -0.61363
H         -0.93553        3.71459       -0.71862
H         -1.39772        2.55866       -1.99289
H         -3.30287        3.27689       -0.39491
H         -3.07528        1.52978       -0.56745
H         -2.90931        2.94810        1.81602
H         -2.52585        1.35872        1.55103
H         -0.49916        0.75631       -0.62239
H          0.66803        1.92923       -0.72524
C         -1.30318        2.70442       -0.91495
C         -2.62337        2.44703       -0.17830
N         -0.29058        1.75894       -0.39313
N         -2.36023        2.31592        1.25077
H         -0.30286        1.82322        0.63428
