41
2msa1dma1tma_109.log	Energy: -1027940.9443544
S         -1.89999        1.40420        0.39251
O         -2.71670        0.36809        1.04543
O         -2.43578        1.92875       -0.87078
O         -0.48047        0.88898        0.19062
C         -1.72360        2.76326        1.53229
H         -2.71724        3.17581        1.70896
H         -1.29600        2.38084        2.45950
H         -1.07222        3.51158        1.08012
S          2.84262        0.47105        0.09059
O          4.20351        0.91035        0.30620
O          2.31818        0.37900       -1.27252
O          1.90171        1.41456        0.94591
H          0.93936        1.29866        0.66372
C          2.60880       -1.12413        0.84948
H          3.27189       -1.82136        0.33484
H          2.88168       -1.04543        1.90182
H          1.56176       -1.42105        0.73605
N         -0.83477       -2.06232        1.27462
C         -0.29940       -1.66083        2.57089
C         -1.43011       -3.39043        1.32591
H         -1.55656       -1.37878        1.04586
H          0.53648       -2.31358        2.84958
H          0.07025       -0.63415        2.50475
H         -1.04884       -1.70765        3.37715
H         -0.65293       -4.13736        1.52362
H         -2.20407       -3.49454        2.10439
H         -1.88738       -3.63547        0.36121
N         -0.60747       -0.73729       -1.99093
C          0.30704       -1.90456       -2.04101
H          1.33140       -1.53392       -2.05067
H          0.13155       -2.50020       -1.14280
H          0.09451       -2.48130       -2.94417
C         -2.03153       -1.16069       -2.01446
H         -2.20502       -1.85275       -1.19096
H         -2.66138       -0.27901       -1.89217
H         -2.23332       -1.65222       -2.96878
C         -0.32477        0.26503       -3.05288
H         -1.00264        1.10673       -2.90360
H          0.70758        0.59438       -2.94187
H         -0.48722       -0.19842       -4.02866
H         -0.45030       -0.23140       -1.08339
