32
2msa2ma_58.log	Energy: -953966.7126334
S         -0.90915        1.60464        0.16247
O         -0.08360        1.67300        1.37479
O         -2.29493        1.13550        0.36671
O         -0.24193        0.76958       -0.91779
C         -1.00154        3.24793       -0.52365
H         -1.56432        3.20255       -1.45590
H         -1.50760        3.88214        0.20462
H          0.01416        3.60274       -0.70043
S          2.81576       -0.62036       -0.18389
O          4.14679       -1.00764       -0.59801
O          1.77810       -1.65006       -0.06940
O          2.31533        0.49904       -1.18645
H          1.32215        0.65317       -1.08431
C          2.89343        0.24314        1.36948
H          3.18877       -0.48344        2.12756
H          3.64552        1.02687        1.27792
H          1.90766        0.66773        1.58012
N         -0.97669       -1.82631       -0.21894
H         -0.38461       -2.56185       -0.59951
H         -0.55878       -0.92112       -0.52154
C         -1.02411       -1.88224        1.26112
H         -1.61058       -1.03136        1.60890
H         -1.49070       -2.81753        1.57220
H         -0.00773       -1.81508        1.64514
H         -1.96147       -1.82900       -0.61021
N         -3.60036       -1.21949       -0.89885
H         -3.35397       -0.24723       -0.69686
C         -4.61662       -1.67981        0.05338
H         -5.56364       -1.13121       -0.01538
H         -4.81914       -2.74244       -0.10591
H         -4.23041       -1.55536        1.06818
H         -3.95670       -1.25681       -1.84828
