35
2msa1a1tma_42.log	Energy: -978620.6075001
S         -2.33732       -1.11363       -0.04894
O         -3.57545       -1.68256        0.46374
O         -1.28352       -0.89445        1.00927
O         -2.51275        0.16675       -0.81186
H         -1.63102        1.31507       -0.24149
C         -1.62699       -2.26379       -1.21345
H         -1.45424       -3.20799       -0.69549
H         -2.34877       -2.40012       -2.01924
H         -0.69152       -1.84536       -1.58958
S          1.93718       -0.77371        0.13546
O          2.14612        0.45576        0.90981
O          1.40021       -0.58709       -1.21283
O          1.04563       -1.77906        0.94449
H          0.05955       -1.44598        0.98664
C          3.45450       -1.68534        0.07085
H          3.28525       -2.59025       -0.51191
H          4.18854       -1.02157       -0.39615
H          3.74521       -1.92283        1.09418
N          4.81004        1.28564       -0.51772
H          4.01956        1.41999        0.10875
H          4.60719        1.76458       -1.38821
H          5.62585        1.72306       -0.10420
N         -1.18293        2.25073        0.02045
C         -0.12149        2.50972       -0.98188
H          0.59911        1.69243       -0.94979
H         -0.58117        2.54995       -1.96996
H          0.36681        3.46026       -0.75295
C         -2.28710        3.23273       -0.07274
H         -2.72810        3.17230       -1.06799
H         -3.04493        2.97727        0.66807
H         -1.89895        4.23711        0.11286
C         -0.64075        2.16011        1.39950
H         -1.41860        1.76684        2.05371
H          0.21388        1.48422        1.40277
H         -0.33213        3.15836        1.72176
