38
2msa2dma_156.log	Energy: -1003280.0501467
S          0.95003       -1.35302       -0.35974
O         -0.12630       -2.34435       -0.55085
O          1.02399       -0.76624        0.97622
O          0.84040       -0.23764       -1.44950
H         -0.06639        0.28882       -1.33635
C          2.49829       -2.08463       -0.79540
H          2.65889       -2.90686       -0.09668
H          2.42502       -2.45319       -1.81835
H          3.27491       -1.31476       -0.68360
S         -1.71040        1.87890       -0.05005
O         -2.44075        3.02998       -0.55902
O         -1.33778        0.88537       -1.13430
O         -2.38672        1.13755        1.05781
H         -2.47131       -0.43116        0.70423
C         -0.15899        2.45141        0.62230
H          0.39129        2.95235       -0.17546
H         -0.39003        3.15484        1.42272
H          0.39244        1.59134        1.00682
N          4.43042        0.42849        0.06247
C          4.33368        0.20785        1.50065
C          3.66399        1.58859       -0.37520
H          5.40286        0.54563       -0.20081
H          3.29590       -0.03188        1.75277
H          4.95949       -0.64253        1.78657
H          4.63915        1.08339        2.09836
H          2.60103        1.40143       -0.19916
H          3.93992        2.51809        0.15134
H          3.80039        1.73908       -1.44904
N         -2.61415       -1.43600        0.39764
C         -3.60766       -1.42996       -0.69751
C         -2.98550       -2.25407        1.56770
H         -1.70332       -1.76435        0.02594
H         -4.55284       -1.04219       -0.31468
H         -3.23262       -0.77124       -1.48104
H         -3.74012       -2.44403       -1.07845
H         -3.90599       -1.85997        2.00074
H         -3.13079       -3.29117        1.26057
H         -2.18154       -2.19557        2.30140
