29
2msa1a1ma_129.log	Energy: -929291.4507242
S         -2.45878       -0.12753        0.07545
O         -1.83333       -1.13333       -0.76869
O         -3.48557       -0.55323        1.02714
O         -3.07545        1.00904       -0.84585
H         -4.08806        1.07877       -0.68733
C         -1.18701        0.76276        0.93224
H         -0.65421        0.05280        1.56727
H         -0.49530        1.16555        0.19162
H         -1.65590        1.55159        1.51985
S          2.14134       -0.93509        0.13390
O          1.55308       -0.91437        1.46576
O          3.58744       -1.13813        0.02252
O          1.77209        0.40159       -0.62781
H          2.64839        0.98076       -0.77002
C          1.28822       -2.14601       -0.84242
H          1.44834       -3.11017       -0.35823
H          0.22593       -1.89065       -0.85842
H          1.71426       -2.14016       -1.84529
N         -5.65656        1.01120       -0.28027
H         -5.58290        0.32147        0.46593
H         -6.27186        0.64275       -0.99806
H         -6.07716        1.85348        0.09760
N          3.98529        1.69647       -0.80323
H          4.62717        0.91973       -0.94687
C          4.21505        2.30428        0.51645
H          5.21667        2.73349        0.62266
H          3.47225        3.08708        0.68371
H          4.07865        1.53439        1.27874
H          4.12797        2.36851       -1.55046
