34
2msa1a1eda_253.log	Energy: -988695.7445458
S         -2.61429        0.09133       -0.06191
O         -2.51449       -1.20211        0.61245
O         -1.47155        0.32196       -1.02617
O         -2.73626        1.25765        0.85959
H         -1.33157        1.20010        1.85607
C         -4.08350        0.10195       -1.06891
H         -4.00473       -0.71403       -1.78737
H         -4.93801       -0.04712       -0.40849
H         -4.14996        1.06381       -1.57692
S          1.21195       -1.85647        0.03080
O          0.63478       -3.17626        0.17543
O          1.18751       -0.97177        1.21251
O          0.62010       -1.08438       -1.20776
H         -0.28474       -0.62149       -1.05667
C          2.89814       -1.98280       -0.50624
H          3.41856       -2.57478        0.24781
H          2.90794       -2.49583       -1.46779
H          3.31331       -0.97313       -0.56676
N         -0.30967        1.15155        2.08491
H         -0.11054        1.48844        3.02127
H          0.17699        1.71772        1.32780
H          0.02493        0.18066        1.96198
H          2.88328        3.36542        0.26282
H          3.78504        2.63997       -1.07272
H          1.64840        2.97044       -1.97435
H          1.65436        1.25586       -1.54490
H          0.24591        3.41232       -0.19945
H         -0.30859        1.95146       -0.69280
H          4.04941        1.42963        1.07129
H          2.50246        0.89963        0.91734
C          2.97468        2.45759       -0.35811
C          1.67546        2.26843       -1.13121
N          3.30479        1.25738        0.40562
N          0.49141        2.42841       -0.26795
