35
2msa1ma1dma_346.log	Energy: -978606.8270847
S          2.62883       -0.75838       -0.42657
O          3.57826       -1.75021       -0.89307
O          2.03641       -0.89994        0.90157
O          1.44741       -0.66648       -1.49282
H          0.55183       -0.68254       -1.04476
C          3.36307        0.85209       -0.56602
H          4.20205        0.87387        0.13144
H          3.71924        0.96735       -1.59016
H          2.61713        1.61487       -0.30915
S         -1.67798       -0.95353        0.71845
O         -1.60814        0.21224        1.59779
O         -0.99916       -0.71076       -0.61941
O         -3.07451       -1.42349        0.44112
H         -3.55718       -0.67632       -0.95354
C         -0.81551       -2.30650        1.47664
H          0.22506       -2.00122        1.60338
H         -1.29606       -2.50130        2.43563
H         -0.89193       -3.17211        0.81859
N         -3.33061       -0.01290       -1.75209
H         -2.31119       -0.19560       -1.82860
C         -3.56588        1.38762       -1.32076
H         -3.18172        2.07546       -2.07352
H         -4.63375        1.54287       -1.17192
H         -3.03843        1.53372       -0.37655
H         -3.81785       -0.25956       -2.60978
N          1.03679        2.98473        0.46367
C          0.96205        2.39187        1.79627
C         -0.17527        2.77601       -0.31293
H          1.22384        3.97851        0.54129
H          0.86461        1.30725        1.70432
H          1.88628        2.60805        2.33982
H          0.10482        2.75215        2.38699
H         -0.32009        1.70261       -0.46877
H         -1.08381        3.16237        0.18311
H         -0.07258        3.25996       -1.28972
