35
2msa1a1tma_86.log	Energy: -978612.4908471
S          2.00232       -1.51643        0.02130
O          2.42670       -2.80763       -0.49228
O          1.35501       -0.64071       -1.03765
O          3.08135       -0.71105        0.68334
H          3.25569        0.63831       -0.00438
C          0.76012       -1.78033        1.27072
H         -0.06349       -2.33094        0.81515
H          1.22070       -2.37030        2.06372
H          0.42460       -0.81311        1.64916
S         -0.27511        2.00480        0.17161
O          0.83968        2.83284       -0.32826
O         -0.12886        1.48593        1.52426
O         -0.57762        0.86042       -0.84359
H          0.23051        0.17182       -0.90618
C         -1.77230        2.94447        0.04493
H         -1.67676        3.78834        0.72866
H         -1.88752        3.28266       -0.98427
H         -2.59627        2.29493        0.34221
N          3.29568        1.54119       -0.60398
H          3.31828        1.24686       -1.57857
H          4.11666        2.09843       -0.38487
H          2.42484        2.09102       -0.45196
N         -3.51383       -1.50399       -0.04087
C         -3.97533       -0.40701       -0.87195
H         -4.44102       -0.80211       -1.77990
H         -4.73164        0.17177       -0.33115
H         -3.15596        0.27221       -1.17444
C         -2.97690       -1.02419        1.22018
H         -3.74479       -0.45825        1.75756
H         -2.69004       -1.87451        1.84732
H         -2.08998       -0.37714        1.09535
C         -2.55067       -2.32946       -0.74838
H         -2.26459       -3.18115       -0.12251
H         -3.00243       -2.72499       -1.66283
H         -1.63462       -1.77745       -1.03025
