37
2msa1ma1eda_234.log	Energy: -1013360.2463557
S         -1.65165       -1.66501        0.16617
O         -2.79146       -1.63720       -0.76065
O         -1.60224       -0.55475        1.13578
O         -0.34334       -1.76561       -0.60010
C         -1.75704       -3.18106        1.09920
H         -2.69256       -3.16485        1.65892
H         -1.74260       -4.01382        0.39604
H         -0.90400       -3.22557        1.77709
S          2.69627       -0.31853       -0.18257
O          3.05369        0.71293        0.78772
O          2.08003        0.14193       -1.43375
O          1.80436       -1.39979        0.48037
H          0.83132       -1.55215        0.00612
C          4.16727       -1.23098       -0.58839
H          4.87615       -0.52960       -1.02932
H          4.56832       -1.65703        0.33111
H          3.89829       -2.01212       -1.29888
N         -3.10702        1.31181       -1.26342
H         -3.55130        1.71722       -2.08054
C         -3.74022        1.78773       -0.02725
H         -4.81699        1.58545        0.01816
H         -3.26019        1.28510        0.81647
H         -3.58661        2.86673        0.07447
H         -3.20791        0.29526       -1.32466
H          1.35826        2.48259       -0.87507
H         -0.10988        3.32270       -1.41678
H          0.81178        4.20080        0.77136
H         -0.85362        3.61767        0.91573
H          1.48574        1.99862        1.69876
H          0.25966        2.55010        2.67507
H          0.12171        0.68324       -1.22011
H         -0.42315        1.00008        0.30889
C          0.30887        2.67496       -0.64343
C          0.18168        3.29934        0.74648
N         -0.39508        1.37112       -0.66034
N          0.51040        2.28608        1.73239
H         -1.40637        1.42291       -0.99552
