35
2msa1ma1dma_345.log	Energy: -978603.8976948
S         -2.90582       -0.96882        0.16148
O         -3.52839        0.33610        0.31206
O         -2.02147       -1.44187        1.22056
O         -2.15349       -1.06807       -1.23583
H         -1.21414       -0.73341       -1.16381
C         -4.17105       -2.18108       -0.13543
H         -4.80467       -2.19500        0.75199
H         -4.74315       -1.87473       -1.01090
H         -3.69556       -3.14874       -0.29044
S          1.39031       -0.10033       -0.14771
O          0.30577       -0.13882       -1.14064
O          2.50847        0.79135       -0.46241
O          1.94052       -1.54919        0.06494
H          2.98420       -1.60065       -0.23160
C          0.69520        0.32477        1.41878
H          0.25247        1.32529        1.29556
H         -0.07294       -0.41310        1.65861
H          1.50050        0.32663        2.15370
N          4.39180       -1.51135       -0.57971
H          4.70481       -2.21468       -1.24195
C          5.22497       -1.50309        0.63149
H          6.28207       -1.31489        0.42025
H          4.85482       -0.72390        1.30050
H          5.12738       -2.46500        1.13825
H          4.42326       -0.60453       -1.04299
N         -0.47505        3.22590        0.48963
C         -1.28411        2.86542       -0.66991
C          0.72704        3.96562        0.13312
H         -1.03567        3.76859        1.13733
H         -0.70676        2.19226       -1.31097
H         -2.17848        2.32911       -0.34385
H         -1.58642        3.73815       -1.27435
H          1.38521        3.31725       -0.45476
H          0.52405        4.87553       -0.45818
H          1.26624        4.25457        1.04019
