29
2msa1a1ma_94.log	Energy: -929297.9655212
S          2.62399        0.06971        0.20552
O          2.05223       -1.28823       -0.00378
O          1.81317        0.88695        1.14522
O          2.87615        0.79637       -1.07209
H          1.58259        1.90102       -1.26286
C          4.21298       -0.20023        0.95799
H          4.05465       -0.71823        1.90383
H          4.81020       -0.80842        0.27876
H          4.67935        0.77129        1.12089
S         -1.39938       -0.91824       -0.41041
O         -2.67499       -1.54463       -0.69269
O         -1.17685        0.41417       -1.00624
O         -0.27609       -1.90292       -0.89799
H          0.65231       -1.61668       -0.60268
C         -1.14998       -0.77238        1.34037
H         -1.97563       -0.14832        1.69943
H         -1.20374       -1.77447        1.76665
H         -0.17365       -0.31363        1.51689
N          0.70026        2.35632       -0.91684
H          0.48510        3.23347       -1.38017
H          0.86614        2.46831        0.08848
H         -0.07087        1.65623       -1.01652
N         -4.20431        0.50443        1.15560
H         -4.26509       -0.36593        0.63404
C         -4.31265        1.64117        0.24241
H         -5.27224        1.70911       -0.29062
H         -4.16785        2.57207        0.79969
H         -3.51669        1.56970       -0.50347
H         -4.96106        0.51088        1.83059
