38
2msa1ma1tma_94.log	Energy: -1003277.5956559
S          2.08595       -1.61707       -0.05796
O          2.84013       -0.36461       -0.15518
O          1.43420       -2.12085       -1.25659
O          1.06714       -1.52685        1.13579
H          0.19336       -1.00766        0.89044
C          3.17754       -2.86380        0.58707
H          3.96086       -3.00936       -0.15757
H          3.59935       -2.50699        1.52617
H          2.60836       -3.78129        0.73265
S         -1.41139        0.30910       -0.65981
O         -2.54604        1.23303       -0.55846
O         -1.01577       -0.22921        0.69495
O         -0.21064        0.89828       -1.33151
H          0.73333        1.70968       -0.37115
C         -1.88064       -1.09397       -1.64058
H         -2.76367       -1.53680       -1.17091
H         -2.11706       -0.72831       -2.64048
H         -1.02825       -1.77497       -1.67058
N         -4.67079       -0.91777        0.20627
H         -4.36037        0.01187       -0.06618
C         -4.31830       -1.17464        1.60107
H         -4.82145       -0.51882        2.32841
H         -4.55918       -2.21200        1.85455
H         -3.23958       -1.04253        1.72008
H         -5.67405       -0.96610        0.06938
N          1.18310        2.45522        0.24638
C          0.20555        3.57066        0.24445
H          0.05882        3.90626       -0.78209
H         -0.74555        3.20110        0.63068
H          0.58425        4.38642        0.86465
C          1.35983        1.88752        1.60632
H          0.40144        1.48592        1.93818
H          2.08903        1.08066        1.54746
H          1.70539        2.67652        2.27905
C          2.47457        2.82936       -0.37468
H          3.09648        1.93586       -0.42487
H          2.28277        3.19982       -1.38222
H          2.95333        3.60680        0.22608
