35
2msa1ma1dma_64.log	Energy: -978628.0891324
S          2.35435       -0.48646       -0.10615
O          2.21376       -1.64878        0.80946
O          2.65641        0.79075        0.55236
O          1.14103       -0.39639       -0.99786
H          0.33391        0.85501       -1.12746
C          3.71669       -0.86848       -1.18999
H          4.61590       -0.95215       -0.57928
H          3.50318       -1.81067       -1.69440
H          3.81472       -0.05565       -1.90985
S         -0.94328        2.17227        0.07214
O         -2.02035        3.07402       -0.27538
O         -0.30056        1.65429       -1.26571
O         -1.27206        1.01759        0.92742
H         -0.66507       -0.62238        1.16000
C          0.37481        3.06447        0.85992
H          0.64520        3.89601        0.20891
H         -0.00974        3.42902        1.81326
H          1.21743        2.38085        0.99603
N         -0.51953       -1.64389        1.23568
H         -1.08684       -2.05396        0.44295
C         -0.97145       -2.14697        2.54471
H         -0.82807       -3.22702        2.58856
H         -0.39046       -1.67374        3.33629
H         -2.02771       -1.91084        2.67873
H          0.49758       -1.80911        1.08091
N         -2.31447       -2.31410       -0.81539
C         -1.77356       -1.70244       -2.03351
C         -3.49506       -1.60226       -0.31919
H         -2.55964       -3.28017       -1.00843
H         -1.48521       -0.67129       -1.81737
H         -0.87609       -2.23780       -2.34901
H         -2.50369       -1.69131       -2.85531
H         -3.19597       -0.60002        0.00499
H         -4.27983       -1.49561       -1.08177
H         -3.91319       -2.13392        0.54029
