42
2msa2eda_207.log	Energy: -1072757.4093981
S          0.26781        1.90597        0.66513
O          1.53144        1.62156        1.36575
O         -0.94513        1.86175        1.49249
O          0.13409        1.00930       -0.55774
C          0.39758        3.55226       -0.01188
H          0.51077        4.24746        0.82043
H          1.26941        3.58667       -0.66561
H         -0.51431        3.76762       -0.56973
S         -2.97294       -0.41336       -0.93911
O         -2.03359       -1.39673       -0.38844
O         -4.01712       -0.86607       -1.83329
O         -2.14607        0.70246       -1.69391
H         -1.24806        0.85163       -1.24378
C         -3.69393        0.46877        0.42579
H         -4.25745       -0.25394        1.01756
H         -2.88427        0.92115        1.00471
H         -4.35995        1.22908        0.01751
H          1.75827       -2.54682        1.72020
H          1.78304       -0.75539        1.70667
H          0.15663       -1.68804        3.38382
H         -0.63801       -0.69687        2.16730
H         -1.22827       -3.34603        2.73845
H         -1.73982       -2.52054        1.40238
H          1.71245       -1.86936       -0.50131
H          0.11575       -2.35270       -0.10421
C          1.17886       -1.64350        1.51283
C         -0.11267       -1.64637        2.32432
N          0.84818       -1.65626        0.06367
N         -0.92850       -2.79926        1.94346
H          0.47726       -0.72991       -0.22382
H          4.90273       -0.96378       -2.16049
H          3.29491       -0.97829       -2.90424
H          3.84622        1.21974       -1.85469
H          2.39555        0.49149       -1.17616
H          4.95493        0.75401        0.16171
H          3.41800        0.94800        0.72615
H          3.68006       -2.94036       -1.51548
H          3.89068       -1.95356       -0.21385
C          3.82375       -0.92744       -1.94718
C          3.48251        0.38376       -1.23945
N          3.40260       -2.05539       -1.10362
N          4.01202        0.38435        0.12287
