38
2msa2dma_81.log	Energy: -1003284.3774896
S         -0.93365       -2.01175        0.14265
O         -1.22339       -0.80365       -0.63779
O         -1.29165       -1.94671        1.55671
O          0.53744       -2.47349       -0.06307
C         -1.77306       -3.38560       -0.61100
H         -2.84267       -3.19269       -0.52261
H         -1.47229       -3.44417       -1.65656
H         -1.50071       -4.29246       -0.07166
S          2.70425        0.27633       -0.11980
O          3.03174        1.42485        0.73586
O          1.68748        0.56900       -1.16111
O          2.30865       -0.93261        0.68850
H          1.27712       -1.77726        0.24927
C          4.19057       -0.19817       -0.98208
H          4.52000        0.65146       -1.58046
H          4.94265       -0.46087       -0.23805
H          3.95926       -1.05300       -1.61784
N         -0.33375        1.84331        0.25119
C          0.26300        3.17128       -0.00438
C         -0.23394        1.42348        1.66949
H         -1.35005        1.85263       -0.02672
H          1.32041        3.13334        0.26343
H          0.16218        3.39979       -1.06575
H         -0.26094        3.92102        0.59230
H          0.81877        1.39196        1.95487
H         -0.77179        2.14752        2.28562
H         -0.68088        0.43505        1.77947
H          0.16939        1.15676       -0.34618
N         -3.11636        1.94955       -0.31870
C         -3.71371        1.08264        0.70064
C         -3.33949        1.44893       -1.67761
H         -3.51523        2.87989       -0.23812
H         -3.19721        0.11983        0.69164
H         -3.58133        1.53239        1.68821
H         -4.78721        0.91024        0.53246
H         -2.82090        0.49362       -1.78706
H         -4.40693        1.30253       -1.90104
H         -2.92304        2.15472       -2.40125
