38
2msa2dma_206.log	Energy: -1003272.6637264
S         -1.86215        1.54813        0.06273
O         -2.23996        0.74309       -1.09011
O         -1.02585        2.72368       -0.17575
O         -1.19733        0.64134        1.17435
H         -0.40391        0.13718        0.77121
C         -3.31983        2.03886        0.95156
H         -3.88548        2.69790        0.29228
H         -3.89327        1.14283        1.18749
H         -3.01605        2.56339        1.85685
S          1.86109       -1.28186        0.36540
O          0.73392       -0.38559       -0.08833
O          1.74798       -1.69536        1.75985
O          3.15497       -0.60478        0.01161
H          2.90079        0.88361       -0.33800
C          1.76307       -2.72676       -0.66784
H          0.75436       -3.13953       -0.57103
H          1.94470       -2.42238       -1.69875
H          2.52578       -3.42859       -0.32956
N         -1.58111       -2.52149       -0.57918
C         -1.79728       -2.63879        0.85487
C         -2.80559       -2.71108       -1.33831
H         -1.21021       -1.59761       -0.78341
H         -2.10664       -3.66310        1.09206
H         -0.86711       -2.43514        1.39330
H         -2.57272       -1.95159        1.23708
H         -3.16099       -3.74011       -1.21080
H         -3.61687       -2.02811       -1.03144
H         -2.61043       -2.54903       -2.40163
N          2.72758        1.92816       -0.53162
C          2.14874        2.53468        0.69380
C          1.87115        2.06944       -1.73651
H          3.64288        2.33851       -0.71136
H          1.17605        2.08015        0.86965
H          2.81792        2.33035        1.52974
H          2.02275        3.60800        0.54647
H          0.93509        1.54840       -1.54560
H          1.67729        3.12611       -1.92462
H          2.38647        1.61453       -2.58282
