40
2msa1dma1eda_256.log	Energy: -1038021.4523289
S          1.32875        1.99123        0.77001
O          2.31633        2.80382        1.44927
O         -0.07453        2.34723        1.38180
O          1.51018        0.53534        0.76033
C          1.19125        2.52352       -0.92372
H          0.41221        1.92299       -1.39987
H          0.95167        3.58700       -0.92456
H          2.16058        2.35259       -1.39461
S         -2.31426        0.38312       -0.68161
O         -3.14531       -0.82742       -0.63692
O         -0.99143        0.17550       -1.34171
O         -2.12973        1.01104        0.66528
H         -0.84462        1.75567        1.06540
C         -3.18651        1.58354       -1.67080
H         -3.32054        1.16594       -2.66885
H         -4.15118        1.76681       -1.19733
H         -2.59763        2.50063       -1.70793
N          2.86318       -1.57558       -0.73644
C          2.66188       -0.94221       -2.03791
C          4.02854       -2.45145       -0.70069
H          2.94692       -0.84061       -0.03606
H          2.47862       -1.71210       -2.79454
H          1.78323       -0.29263       -1.99248
H          3.52887       -0.34620       -2.36108
H          3.87921       -3.28555       -1.39371
H          4.95902       -1.93659       -0.98410
H          4.15107       -2.86160        0.30478
H          0.57986       -3.01454        1.80359
H          0.47692       -1.23914        1.95789
H         -1.56837       -2.57690        2.84440
H         -1.93408       -1.27357        1.71616
H         -2.50556       -3.98798        1.33667
H         -2.77177       -2.72412        0.30493
H          1.22362       -2.03994       -0.26025
H         -0.35415       -2.75304       -0.39372
C          0.03307       -2.11954        1.49265
C         -1.46047       -2.25591        1.80365
N          0.20545       -2.00003        0.02479
N         -2.07406       -3.20205        0.86986
H         -0.16847       -1.10494       -0.35000
