40
2msa1dma1eda_114.log	Energy: -1038025.9143228
S         -0.65785        2.04874       -0.10084
O         -2.10568        1.80642        0.02169
O         -0.06850        1.71811       -1.40714
O          0.08374        1.35872        1.03320
H          1.58904        1.00569        0.86723
C         -0.38444        3.78851        0.18060
H         -0.90182        4.33673       -0.60720
H         -0.78769        4.04567        1.15990
H          0.68863        3.97701        0.13882
S          2.79007       -0.54085       -0.06690
O          4.13015       -1.02052        0.19801
O          2.57264        0.76364        0.79741
O          1.65724       -1.44515        0.15941
H         -0.71560       -0.15781        1.43410
C          2.68594        0.05435       -1.73857
H          3.50285        0.75968       -1.89213
H          2.79481       -0.80858       -2.39689
H          1.71620        0.54185       -1.86704
N         -1.24435       -1.02377        1.66506
C         -2.55301       -0.64464        2.23496
C         -0.42028       -1.86726        2.55572
H         -1.35676       -1.54906        0.74718
H         -2.39687       -0.20625        3.22287
H         -3.01505        0.08276        1.57141
H         -3.18126       -1.53304        2.30954
H         -0.24643       -1.34135        3.49611
H         -0.94838       -2.80293        2.74978
H          0.52987       -2.06303        2.05884
H         -3.16124       -2.43068       -2.23104
H         -2.81161       -0.88441       -3.00888
H         -0.75588       -2.06785       -2.78037
H         -0.71308       -0.68423       -1.68321
H         -1.32213       -3.42918       -0.82453
H          0.08396       -2.60568       -0.57160
H         -2.97515        0.13958       -0.81586
H         -4.31166       -0.78212       -1.02830
C         -2.68489       -1.45335       -2.07453
C         -1.19007       -1.65534       -1.85815
N         -3.30474       -0.82130       -0.91501
N         -0.92184       -2.50527       -0.69087
