35
2msa1ma1dma_02.log	Energy: -978643.3943832
S          2.67947       -0.22660       -0.22484
O          2.78863        0.87273       -1.19176
O          2.47236       -1.57538       -0.81719
O          1.63543        0.04961        0.82618
C          4.23145       -0.31697        0.65273
H          5.01126       -0.54441       -0.07446
H          4.41546        0.64934        1.12259
H          4.16296       -1.10486        1.40277
S         -2.62959       -0.12257       -0.23453
O         -2.34434       -1.28026       -1.12353
O         -2.34740        1.19253       -0.87390
O         -1.95228       -0.25231        1.08193
C         -4.38730       -0.15101        0.06300
H         -4.89367       -0.04886       -0.89687
H         -4.63798       -1.10252        0.53202
H         -4.63673        0.68136        0.72124
N         -0.04203       -2.21187        0.06370
H         -0.04052       -1.44277        0.74514
H         -0.82774       -1.98086       -0.58117
C         -0.25538       -3.51462        0.71942
H         -0.26405       -4.29853       -0.03726
H          0.55093       -3.69879        1.42932
H         -1.21271       -3.49394        1.23994
H          0.87954       -2.14079       -0.42059
N         -0.01550        2.14865        0.20773
C         -0.49260        2.64408        1.51554
C          0.67028        3.15942       -0.62343
H          0.62867        1.34098        0.38374
H         -1.18337        3.47359        1.35474
H         -1.00790        1.82145        2.01231
H          0.36234        2.97530        2.10731
H         -0.04003        3.94474       -0.88726
H          1.50643        3.57838       -0.06192
H          1.05963        2.66870       -1.51432
H         -0.84596        1.77109       -0.30503
