26
2msa2a_52.log	Energy: -904638.8514198
S          2.22686       -0.69098       -0.05297
O          3.15532        0.46156       -0.09208
O          1.54880       -0.97857       -1.32742
O          1.24771       -0.55865        1.08921
C          3.21136       -2.12192        0.36107
H          2.55129       -2.98781        0.41735
H          3.95291       -2.25588       -0.42702
H          3.69634       -1.94177        1.32038
S         -2.74829       -0.15102        0.04584
O         -3.52596       -0.72971        1.12741
O         -2.20402        1.19374        0.19380
O         -3.70539       -0.10834       -1.26383
H         -4.57583       -0.44477       -1.00608
C         -1.46465       -1.24487       -0.47890
H         -0.71360       -1.26885        0.31702
H         -1.90541       -2.22626       -0.65161
H         -0.99646       -0.84474       -1.37856
N          0.34883        1.96112        1.23757
H          0.88783        2.49262        0.48623
H          0.75494        0.98072        1.28380
H          0.42340        2.42513        2.13756
H         -0.63631        1.86650        0.96139
N          1.91035        2.98904       -0.83097
H          2.53719        2.17697       -0.78282
H          2.47291        3.83158       -0.77469
H          1.46746        2.97804       -1.74469
