29
2msa1a1ma_151.log	Energy: -929288.5124174
S          2.63523       -0.43991        0.21552
O          3.71667       -1.35486        0.51279
O          1.60040       -0.18954        1.21729
O          1.92307       -0.99302       -1.10793
H          0.98170       -0.69810       -1.15091
C          3.29566        1.11698       -0.32171
H          3.80699        1.55467        0.53714
H          4.00217        0.91772       -1.12766
H          2.45788        1.74585       -0.65106
S         -1.76585       -0.78250       -0.28127
O         -0.71728       -0.35929       -1.21634
O         -2.98840       -1.34195       -0.84697
O         -2.13170        0.45325        0.61976
H         -3.16579        0.61086        0.62782
C         -1.05251       -1.92548        0.87062
H         -0.73242       -2.79770        0.29828
H         -0.19556       -1.43859        1.34207
H         -1.81892       -2.19916        1.59539
N         -4.71218        0.73974        0.50884
H         -5.02694        1.62028        0.11369
H         -5.23574        0.57161        1.36208
H         -4.92814       -0.00342       -0.15314
N          0.40933        2.56218       -0.82424
H          0.14181        3.31312       -1.45092
C          0.16807        2.92924        0.57088
H         -0.87865        3.17398        0.80111
H          0.46662        2.09424        1.20976
H          0.78917        3.79200        0.83236
H         -0.14384        1.74679       -1.07362
