37
2msa1ma1eda_87.log	Energy: -1013365.7434641
S          2.44017       -1.28595        0.18762
O          3.25554       -0.13014       -0.25162
O          1.87391       -2.06377       -0.95311
O          1.36822       -0.88901        1.14268
H          0.27871        0.32025        0.54982
C          3.51737       -2.40080        1.06265
H          3.94177       -1.86720        1.91309
H          2.92421       -3.25182        1.39704
H          4.30116       -2.71926        0.37531
S         -3.24335       -0.19087        0.41335
O         -2.75499        1.11652        0.94091
O         -2.94128       -1.34384        1.25983
O         -2.78870       -0.37639       -1.01466
H         -1.32377       -0.78424       -1.43302
C         -5.01645       -0.03062        0.30098
H         -5.39887        0.13038        1.30920
H         -5.25183        0.81785       -0.34130
H         -5.41354       -0.95626       -0.11606
N          2.32231        2.50050        0.92822
H          2.50700        2.64411        1.91633
C          2.84353        3.62311        0.14361
H          3.91450        3.80587        0.29512
H          2.68838        3.41834       -0.91925
H          2.29797        4.53725        0.39356
H          2.80036        1.63467        0.66050
H          1.35014        0.37361       -1.90890
H          0.09329        0.82366       -3.07777
H          0.15345        2.49062       -1.35427
H         -1.39268        1.62187       -1.28377
H          0.65041        1.90130        0.69712
H         -1.02798        1.34435        0.81396
H         -0.47229       -1.31800       -2.78082
H          0.31059       -1.46847       -1.34216
C          0.27248        0.48784       -2.05479
C         -0.31758        1.53318       -1.11942
N         -0.35390       -0.85920       -1.88006
N         -0.10810        1.26543        0.32759
