42
2msa2eda_465.log	Energy: -1072747.2348655
S         -2.24206       -1.03587       -0.70303
O         -1.48421       -2.30121       -0.55738
O         -1.58702       -0.06174       -1.60905
O         -2.59475       -0.42249        0.61394
C         -3.80439       -1.46820       -1.45332
H         -3.60018       -1.92656       -2.42121
H         -4.31655       -2.17048       -0.79540
H         -4.38906       -0.55585       -1.57303
S          2.65839       -0.66526       -0.54910
O          2.13933        0.46515        0.20516
O          3.35078       -1.74887        0.12940
O          3.71923       -0.02975       -1.60928
H          4.52883       -0.55796       -1.56604
C          1.40886       -1.28444       -1.63597
H          0.62785       -1.74982       -1.02822
H          0.97421       -0.44456       -2.17851
H          1.87315       -2.00836       -2.30554
H          0.83091        0.20438        3.40588
H         -0.90898        0.38878        3.73429
H         -0.15861       -2.03407        3.77792
H         -1.42761       -1.69723        2.59443
H          1.25656       -2.52635        2.01002
H         -0.10743       -2.51458        1.04869
H         -0.27837        1.71055        1.75488
H          0.41815        0.32193        1.11132
C         -0.17352       -0.01708        3.03489
C         -0.37385       -1.52307        2.83153
N         -0.33181        0.65910        1.72970
N          0.44568       -1.99486        1.72398
H         -1.23939        0.37608        1.28917
H          0.41092        4.76341       -0.18960
H          1.51933        3.48604        0.35111
H          0.56477        3.03729       -1.91009
H          0.20234        1.76568       -0.75669
H         -1.69496        3.61785       -1.89122
H         -1.84492        2.03124       -1.45858
H         -0.16991        4.16388        2.03868
H         -1.32043        3.55083        1.02945
C          0.47132        3.71173        0.12930
C         -0.01482        2.80742       -1.00467
N         -0.34679        3.46371        1.32620
N         -1.45859        2.93194       -1.18423
