34
2msa1a1eda_30.log	Energy: -988711.8792952
S          2.59365       -0.91335       -0.13889
O          4.01427       -0.95504       -0.46154
O          1.94283        0.40201       -0.50116
O          2.26569       -1.26303        1.27667
H          0.95606       -0.59700        1.92842
C          1.74989       -2.12738       -1.14264
H          1.98523       -1.92371       -2.18816
H          2.12572       -3.11019       -0.85659
H          0.67394       -2.05235       -0.96626
S         -2.50000       -0.73444       -0.03174
O         -2.17093       -1.30162        1.30089
O         -1.61087       -1.19490       -1.11788
O         -2.55968        0.76513        0.01264
H         -1.21847        1.23398       -0.81595
C         -4.15055       -1.28956       -0.40831
H         -4.43824       -0.87084       -1.37263
H         -4.13503       -2.37888       -0.44998
H         -4.81828       -0.94218        0.37980
N          0.09704       -0.07839        2.27541
H          0.16558        0.89894        1.91422
H          0.06976       -0.07786        3.29054
H         -0.76463       -0.54314        1.90515
H          1.11596        2.92629       -1.60256
H         -0.56214        3.46114       -1.84628
H          0.33982        4.39100        0.20115
H         -1.03657        3.33346        0.54070
H          1.61100        2.10233        0.68494
H          1.14124        3.09539        1.91174
H         -0.47103        1.14736       -2.30163
H          0.45116        0.81804       -0.96218
C          0.09382        2.85069       -1.22164
C          0.01051        3.34401        0.21754
N         -0.32231        1.43374       -1.33591
N          0.80214        2.52550        1.14464
