42
2msa2eda_326.log	Energy: -1072755.0290226
S         -0.05172        1.75075        1.08913
O          0.15469        1.61099       -0.38820
O          0.99673        1.08234        1.87700
O         -1.43574        1.35434        1.47155
C          0.05436        3.49805        1.42862
H          1.05211        3.83590        1.14719
H         -0.70667        4.00873        0.83862
H         -0.11672        3.64623        2.49490
S          2.92294       -0.53820       -1.08596
O          3.97697       -0.87221       -2.02228
O          1.77071       -1.42542       -0.95396
O          2.42515        0.92134       -1.45868
H          1.55343        1.14976       -1.01193
C          3.62800       -0.30849        0.53253
H          3.99625       -1.28020        0.86498
H          4.45026        0.40169        0.44410
H          2.84600        0.07191        1.19416
H         -1.20740       -2.80935       -0.02302
H         -0.46842       -1.21687       -0.26391
H          0.94640       -2.68026        1.19219
H          0.41800       -1.22144        2.02916
H         -0.59793       -3.92609        2.48185
H         -0.19748       -2.77658        3.57039
H         -2.91338       -1.28467        0.35197
H         -2.35094       -1.77621        1.90701
C         -0.90292       -1.88597        0.47881
C          0.07279       -2.17265        1.61301
N         -2.12430       -1.25947        1.04975
N         -0.62234       -2.92831        2.66368
H         -1.91816       -0.26367        1.29446
H         -4.68429       -0.01779       -2.65429
H         -5.08665        0.39010       -0.97874
H         -3.37171        1.92219       -1.98732
H         -2.81384        1.13011       -0.51832
H         -1.92390        0.51874       -3.21683
H         -1.07091        0.71568       -1.82696
H         -4.65377       -1.98850       -1.27177
H         -3.12773       -1.62773       -1.77487
C         -4.29017        0.01122       -1.62723
C         -3.08324        0.94909       -1.56346
N         -3.89065       -1.32781       -1.16742
N         -1.93030        0.33831       -2.21899
