42
2msa2eda_234.log	Energy: -1072757.6169218
S          1.80184        0.65357       -1.52141
O          3.02383        1.01595       -2.23337
O          1.69512        1.23860       -0.14403
O          1.55126       -0.82893       -1.45080
H          1.24600       -1.21406        0.08499
C          0.41384        1.30768       -2.43487
H          0.50580        2.39458       -2.45999
H          0.46417        0.90191       -3.44605
H         -0.50818        0.98936       -1.94274
S         -2.40049       -1.35008       -0.28586
O         -3.75577       -1.87819       -0.15331
O         -1.62588       -1.33574        0.99112
O         -2.35803        0.01552       -0.93356
H         -2.70652        1.26171       -0.18573
C         -1.48880       -2.37755       -1.42344
H         -1.42083       -3.37653       -0.99029
H         -2.04434       -2.41100       -2.36101
H         -0.49957       -1.93917       -1.57985
H          1.95432       -2.26492        2.79440
H          2.13645       -3.13805        1.24863
H          4.26960       -2.00910        2.04754
H          3.75323       -1.49219        0.43779
H          4.28415        0.20904        2.44632
H          3.20212        0.57534        1.26276
H          0.11678       -1.61364        1.27083
H          1.19496       -0.36525        1.49082
C          2.16084       -2.15653        1.72717
C          3.50063       -1.45170        1.50555
N          1.09944       -1.31993        1.12990
N          3.41911       -0.08229        2.01101
H         -2.72808        2.72329        2.43155
H         -2.80984        0.96001        2.13220
H         -0.46095        1.73068        2.75284
H         -0.59283        0.93372        1.17812
H         -0.09908        3.75559        1.61471
H          0.50194        2.70068        0.49368
H         -3.79159        2.49522        0.33557
H         -2.16926        2.87793        0.04125
C         -2.38234        1.90539        1.79328
C         -0.85579        1.83559        1.73511
N         -2.83150        2.16863        0.40062
N         -0.33771        2.98562        1.00028
