43
2msa1eda1tma_59.log	Energy: -1062684.0279671
S          1.53219       -1.33907       -1.19850
O          2.06213       -0.90630        0.14247
O          1.39938       -0.22022       -2.14062
O          0.29800       -2.15444       -1.03037
C          2.76010       -2.45347       -1.85326
H          3.68860       -1.89737       -1.98328
H          2.89425       -3.27107       -1.14511
H          2.39562       -2.82628       -2.81074
S          0.96197        2.41398        0.54735
O          1.01610        3.60368        1.37009
O         -0.22755        1.55512        0.62932
O          2.24394        1.55319        0.86539
H          2.15923        0.59892        0.52979
C          1.17763        2.85236       -1.16167
H          0.31518        3.45424       -1.45203
H          2.09689        3.43224       -1.24438
H          1.23377        1.92606       -1.73934
H         -2.00274       -1.44771        2.85865
H         -2.15247       -2.77641        1.67928
H         -0.36477       -3.15820        3.43651
H          0.24019       -3.22577        1.77784
H          1.28252       -1.63863        3.70484
H          1.38771       -1.28132        2.10114
H         -2.10895       -0.63353        0.49341
H         -0.68494       -0.23039        1.28099
C         -1.49612       -1.98644        2.05424
C         -0.16446       -2.55321        2.54707
N         -1.24370       -1.03201        0.95619
N          0.74405       -1.46070        2.86823
H         -0.68920       -1.48414        0.19451
N         -3.18159        0.16154       -0.66954
C         -4.37742       -0.58710       -1.03673
H         -4.09659       -1.58665       -1.38118
H         -5.03392       -0.68863       -0.16762
H         -4.94300       -0.08992       -1.84317
C         -3.51790        1.48309       -0.14382
H         -4.18059        1.37801        0.72028
H         -2.60248        1.98695        0.17563
H         -4.02777        2.10528       -0.89876
C         -2.25731        0.26936       -1.80139
H         -1.35319        0.79426       -1.48419
H         -1.96178       -0.72766       -2.13907
H         -2.71250        0.81141       -2.64654
