37
2msa1ma1eda_11.log	Energy: -1013376.0780180
S         -2.58133       -0.78454       -0.06628
O         -2.32365       -1.89248       -1.00171
O         -2.92078        0.51232       -0.66954
O         -1.42842       -0.64383        0.91372
C         -3.97751       -1.26560        0.93944
H         -4.83735       -1.37632        0.27799
H         -3.74648       -2.21188        1.42887
H         -4.15901       -0.48350        1.67684
S          2.89717       -0.07873        0.11154
O          2.94088       -1.36988        0.84850
O          2.62681        1.09047        0.99244
O          1.96225       -0.12929       -1.04357
C          4.53500        0.17442       -0.54573
H          5.23464        0.20777        0.28959
H          4.76832       -0.65764       -1.21018
H          4.54137        1.11791       -1.09166
N          0.52653       -2.34776       -0.06711
H         -0.21693       -1.78954        0.40984
H          0.70543       -1.84397       -0.94216
C          0.11764       -3.75016       -0.27764
H          0.89804       -4.27550       -0.82852
H         -0.02481       -4.22418        0.69361
H         -0.82030       -3.75103       -0.83163
H          1.41534       -2.23389        0.46029
H          0.82347        2.86126       -0.85048
H         -0.18044        1.50389       -1.37962
H         -1.33518        3.73117       -1.72646
H         -2.22261        2.64214       -0.65032
H         -0.65452        4.97762        0.18864
H         -2.18676        4.56880        0.59137
H          0.96332        1.49038        0.92324
H         -0.34329        2.49111        1.34619
C         -0.11109        2.32457       -0.66661
C         -1.31974        3.25042       -0.74018
N         -0.02390        1.75602        0.70350
N         -1.27004        4.19423        0.38036
H         -0.62626        0.91009        0.80890
