37
2msa1ma1eda_222.log	Energy: -1013360.1906015
S          2.66795       -0.23838       -0.35407
O          3.00949        0.89661       -1.20312
O          2.15851       -1.44707       -1.04841
O          1.71345        0.14493        0.77193
C          4.14371       -0.75600        0.50492
H          4.53419        0.10174        1.05259
H          3.88734       -1.56910        1.18393
H          4.86104       -1.09139       -0.24459
S         -1.01198        2.01637        0.12014
O         -1.99350        1.30805        0.95181
O         -0.81237        1.45865       -1.22010
O          0.33950        2.17311        0.86849
H          0.98260        1.32249        0.76655
C         -1.50183        3.71443       -0.02598
H         -2.46757        3.72509       -0.53177
H         -1.58286        4.13636        0.97544
H         -0.74723        4.23511       -0.61468
N         -0.65252       -1.31144        1.82878
H          0.31646       -1.01177        1.92695
C         -0.97533       -2.42465        2.71861
H         -0.81842       -2.20225        3.78170
H         -2.02331       -2.70787        2.58311
H         -0.36025       -3.29019        2.45668
H         -1.22878       -0.49416        2.02003
H         -1.64495       -2.19330       -2.60335
H         -1.11392       -3.37718       -1.38363
H         -3.57188       -2.98437       -1.31839
H         -2.78159       -2.58881        0.21067
H         -4.44676       -0.92532       -0.86313
H         -3.05183       -0.27379       -0.31239
H          0.39915       -1.54209       -1.21628
H         -0.83175       -0.42933       -1.25820
C         -1.54226       -2.38273       -1.53290
C         -2.89571       -2.27077       -0.83819
N         -0.59971       -1.39207       -0.96915
N         -3.44212       -0.92927       -0.98662
H         -0.63694       -1.41402        0.09703
