37
2msa1ma1eda_83.log	Energy: -1013366.3942793
S         -1.95595        1.22401       -0.51936
O         -3.22267        0.47726       -0.43714
O         -0.98942        0.70431       -1.50455
O         -1.30386        1.33116        0.84596
H         -0.95918       -0.52150        0.99746
C         -2.36182        2.89785       -0.98531
H         -2.85035        2.85895       -1.95920
H         -3.03523        3.30908       -0.23330
H         -1.43975        3.47657       -1.04697
S          2.85881       -0.71016       -0.38030
O          4.07689       -1.50807       -0.36194
O          3.06765        0.76370       -0.53976
O          1.95534       -0.94716        0.80972
H          1.61425        1.10240        1.90050
C          1.89416       -1.20310       -1.80290
H          2.49639       -1.01182       -2.69158
H          1.68353       -2.27109       -1.72137
H          0.97594       -0.61080       -1.83422
N          1.37473        1.81114        1.20507
H          1.98675        1.53341        0.38271
C          1.63906        3.18493        1.67025
H          1.36002        3.88153        0.88001
H          1.04953        3.39541        2.56290
H          2.70135        3.29595        1.88748
H          0.36627        1.66624        0.96470
H         -0.87495       -3.48539        1.16345
H         -1.21193       -2.37519        2.51245
H         -3.32061       -3.38150        1.45692
H         -3.29063       -1.61462        1.43376
H         -3.40596       -3.28866       -0.81510
H         -3.29622       -1.63123       -0.77704
H          0.40388       -1.45194        0.76119
H         -0.92479       -1.54765       -0.28757
C         -1.34396       -2.53879        1.44091
C         -2.81816       -2.51288        1.02035
N         -0.64819       -1.46414        0.70190
N         -2.89813       -2.50232       -0.43566
