38
2msa1ma1tma_80.log	Energy: -1003278.7346546
S         -1.28733       -1.67454       -0.69591
O         -0.75097       -3.03006       -0.69869
O         -1.07702       -0.83106       -1.86517
O         -0.66807       -0.96964        0.58171
H         -0.57549        0.06364        0.49056
C         -3.02164       -1.72426       -0.32438
H         -3.51790       -2.17550       -1.18464
H         -3.15706       -2.33941        0.56553
H         -3.35582       -0.69260       -0.15285
S          0.68605        2.10549       -0.38529
O          1.19544        3.37870        0.10774
O         -0.34879        1.49465        0.52987
O          1.74415        1.09041       -0.69236
H          2.08573       -0.21375        0.10242
C         -0.15145        2.38190       -1.93227
H         -0.93831        3.11710       -1.75937
H          0.57988        2.76709       -2.64340
H         -0.56505        1.42836       -2.26414
N         -3.34338        1.31510        0.84958
H         -2.43876        1.71523        0.60968
C         -3.31403        0.84445        2.23316
H         -3.09472        1.62327        2.97709
H         -4.27633        0.38821        2.48674
H         -2.54643        0.06995        2.32483
H         -4.04203        2.04051        0.73218
N          2.64441       -0.98146        0.58566
C          4.04079       -0.48366        0.55261
H          4.33404       -0.33922       -0.48700
H          4.08224        0.47592        1.06783
H          4.69745       -1.20938        1.03799
C          2.14064       -1.11342        1.97419
H          2.18138       -0.13380        2.45231
H          1.10815       -1.45735        1.93281
H          2.76735       -1.82515        2.51690
C          2.48591       -2.23712       -0.18943
H          1.44402       -2.55825       -0.15474
H          2.76621       -2.04228       -1.22500
H          3.13556       -3.00466        0.23853
