42
2msa2eda_587.log	Energy: -1072742.7669479
S          2.57511       -1.24779       -0.48764
O          3.95068       -1.62112       -0.74771
O          2.31054       -0.10591        0.39824
O          1.81434       -2.49913        0.09036
H          1.03570       -2.23058        0.72929
C          1.74629       -0.95020       -2.03156
H          2.20175       -0.06455       -2.47724
H          1.90404       -1.82246       -2.66613
H          0.68189       -0.79497       -1.83944
S         -2.65749       -0.49249       -0.63522
O         -1.45999       -0.87202       -1.39523
O         -2.82847        0.97226       -0.44141
O         -2.72777       -1.19192        0.70495
H         -2.23802       -0.02859        1.80834
C         -4.07829       -1.06047       -1.54637
H         -4.07336       -0.55458       -2.51209
H         -3.98705       -2.13884       -1.67646
H         -4.97557       -0.80861       -0.98157
H         -0.22584       -0.72327        3.57733
H          1.31194       -0.64432        2.70551
H          0.36285        1.41455        2.09355
H         -0.09309        0.38854        0.74533
H         -1.85425        1.15524        2.99727
H         -2.00660        1.50202        1.35420
H         -0.03547       -2.75019        2.43675
H         -0.99716       -1.91521        1.39311
C          0.22974       -0.71239        2.57557
C         -0.21568        0.53024        1.81986
N         -0.06673       -1.94213        1.82196
N         -1.66646        0.82541        2.05301
H          0.56720        1.55344       -1.01056
H          0.42481        2.85822       -2.19096
H          2.63564        2.93885       -1.23192
H          1.72166        4.34606       -0.65755
H          2.36897        1.93773        0.85322
H          2.69496        3.49222        1.24411
H         -1.47968        2.69283       -0.61152
H         -0.44591        3.26413        0.56062
C          0.50743        2.64867       -1.11853
C          1.80035        3.25566       -0.58983
N         -0.63958        3.23698       -0.43659
N          2.00205        2.88694        0.81793
