35
2msa1ma1dma_37.log	Energy: -978629.5153171
S          1.72882       -1.42200        0.11052
O          2.34884       -0.41166        0.99084
O          1.47323       -0.92534       -1.26585
O          0.50785       -2.03711        0.72355
C          2.89133       -2.76428       -0.04515
H          3.81425       -2.36398       -0.46513
H          3.06560       -3.17828        0.94801
H          2.45938       -3.51484       -0.70713
S         -2.41620       -0.39092       -0.05977
O         -1.83266        0.47114       -1.08672
O         -2.38174        0.11849        1.31031
O         -1.82346       -1.83460       -0.14099
H         -0.83662       -1.89076        0.18955
C         -4.09975       -0.75188       -0.49776
H         -4.63796        0.19631       -0.49418
H         -4.10913       -1.20088       -1.49042
H         -4.50889       -1.43331        0.24745
N          0.22339        1.70380        1.54979
H         -0.68903        1.25810        1.65043
C          0.32419        2.88703        2.40438
H          0.17403        2.67142        3.46937
H          1.31185        3.34284        2.28621
H         -0.42439        3.62291        2.09800
H          0.91850        1.00135        1.80635
N          0.96657        1.79807       -1.08450
C          0.18384        2.62286       -2.02100
C          2.38937        2.17952       -0.98057
H          0.55307        1.83423       -0.08418
H          0.61170        2.54350       -3.02272
H         -0.84266        2.26069       -2.02191
H          0.21733        3.66405       -1.69265
H          2.87016        2.07586       -1.95519
H          2.45903        3.21558       -0.64172
H          2.86216        1.51097       -0.25949
H          0.92960        0.79095       -1.33819
