42
2msa2eda_114.log	Energy: -1072769.1236696
S          2.66688       -0.63484       -0.66630
O          3.35689       -0.12553        0.53819
O          1.37730        0.09597       -0.91693
O          2.44949       -2.10061       -0.67113
H          0.35170       -2.59333       -0.51690
C          3.71448       -0.25701       -2.05958
H          3.87076        0.82180       -2.08934
H          4.66259       -0.77582       -1.91599
H          3.21753       -0.60267       -2.96597
S         -3.10642       -0.13013       -0.50365
O         -3.01517        0.24644        0.93952
O         -2.99352       -1.60024       -0.71120
O         -2.14210        0.63556       -1.32665
H         -0.60635        1.50220       -0.18406
C         -4.74721        0.31470       -1.03919
H         -5.46334       -0.24988       -0.44208
H         -4.87634        1.38637       -0.88721
H         -4.83922        0.06152       -2.09541
H         -1.39575       -1.53381        1.62134
H         -0.85725       -3.21178        1.44841
H          0.51903       -2.30451        3.14735
H          1.55134       -2.38202        1.72062
H          0.91395       -0.12734        3.22597
H          1.90691       -0.22843        1.91889
H         -1.27537       -2.00978       -0.60706
H          0.06273       -1.01955       -0.35916
C         -0.55624       -2.16863        1.32570
C          0.68640       -1.87109        2.15604
N         -0.34778       -1.95009       -0.13315
N          0.96247       -0.42789        2.25903
H          2.06306        2.28197        1.03914
H          1.75683        4.02370        1.03250
H          0.04678        2.83714        2.38596
H         -0.68084        3.65172        0.97445
H          0.00697        0.77390        1.22365
H         -1.54529        1.38233        1.13635
H          1.93505        3.71028       -1.19966
H          1.41737        2.14421       -1.15490
C          1.37759        3.06148        0.67492
C         -0.00292        2.85758        1.29345
N          1.26811        3.07818       -0.77757
N         -0.56934        1.56643        0.84310
