37
2msa1ma1eda_403.log	Energy: -1013352.6605506
S          1.66880       -0.17133       -0.96037
O          2.30532       -1.28788       -0.25276
O          1.03210        0.80878       -0.00426
O          0.67443       -0.60258       -1.98759
H         -0.48703       -1.59665       -1.41087
C          2.93180        0.74081       -1.81555
H          3.60559        1.14630       -1.05440
H          3.44521        0.05232       -2.48701
H          2.45046        1.54370       -2.37474
S         -2.37296        1.17962        0.08210
O         -2.25197        0.90132        1.51144
O         -2.67218        0.03504       -0.78261
O         -1.12787        1.96196       -0.44336
H         -0.22505        1.45451       -0.28608
C         -3.62335        2.41459       -0.17100
H         -4.56510        1.98273        0.16874
H         -3.36394        3.29311        0.41890
H         -3.66579        2.64920       -1.23415
N          3.67054        1.85793        1.25797
H          3.88983        2.72506        1.73553
C          4.10338        0.70444        2.04609
H          3.67023        0.65466        3.05681
H          3.82315       -0.20951        1.51564
H          5.19344        0.71701        2.14376
H          2.66294        1.82478        1.12285
H         -0.81983       -4.05401        0.20345
H          0.67295       -3.13895       -0.19526
H          0.02752       -2.76646        2.17891
H         -0.08003       -1.27656        1.25722
H         -2.29208       -2.77125        2.36649
H         -2.18850       -1.16517        1.97302
H         -1.41721       -2.95561       -1.73067
H         -1.93620       -1.86592       -0.57787
C         -0.37618       -3.06108        0.09655
C         -0.53917       -2.26187        1.38782
N         -1.11009       -2.33891       -0.98301
N         -1.95924       -2.10908        1.67814
