43
2msa1eda1tma_155.log	Energy: -1062676.9761851
S         -0.52614       -1.68387        0.75498
O         -0.18101       -0.93885       -0.51484
O         -0.85335       -0.76796        1.85669
O          0.55911       -2.65627        1.06614
H          2.02633       -1.87432        0.75275
C         -1.97849       -2.63291        0.37275
H         -2.77673       -1.93296        0.09738
H         -1.73657       -3.30345       -0.45221
H         -2.24268       -3.20042        1.26587
S          0.86171        2.30010        0.26763
O          1.12280        3.63303       -0.23055
O          2.02427        1.45349        0.59336
O         -0.03327        1.55721       -0.78842
H         -0.10237        0.54381       -0.61935
C         -0.16826        2.37576        1.71247
H          0.40609        2.87673        2.49273
H         -1.05573        2.95457        1.45448
H         -0.42831        1.35266        1.99840
H          3.13302       -2.37226       -1.28782
H          2.01265       -1.01876       -1.53498
H          4.27426       -0.52592       -2.55001
H          3.88002        0.59934       -1.24438
H          5.79189       -1.60727       -1.08776
H          5.95552       -0.05964       -0.58483
H          3.66719       -1.34722        0.85603
H          2.43020       -0.24484        0.62486
C          2.94726       -1.31901       -1.06018
C          4.12595       -0.44354       -1.46595
N          2.75829       -1.20528        0.40677
N          5.29771       -0.82432       -0.67358
N         -3.96680       -0.12149       -0.67272
C         -3.28950       -0.02283       -1.95602
H         -2.21442       -0.16133       -1.81567
H         -3.65210       -0.80937       -2.62539
H         -3.45622        0.95443       -2.44700
C         -5.40851       -0.05417       -0.82758
H         -5.74950       -0.85761       -1.48754
H         -5.89296       -0.18164        0.14516
H         -5.74430        0.90969       -1.25709
C         -3.48772        0.89454        0.25067
H         -3.97250        0.76889        1.22321
H         -2.41167        0.78229        0.39715
H         -3.68757        1.92017       -0.11511
