42
2msa2eda_116.log	Energy: -1072768.0308179
S          3.12739       -0.00219       -0.34897
O          2.98450       -1.08049        0.67204
O          3.10871        1.36476        0.24429
O          2.13486       -0.14273       -1.43842
C          4.74938       -0.20771       -1.06105
H          5.48702       -0.10643       -0.26476
H          4.80163       -1.19903       -1.51146
H          4.88807        0.56615       -1.81628
S         -2.53503        0.02026       -0.82703
O         -2.85039        1.11557        0.11372
O         -2.90045       -1.32832       -0.34472
O         -1.10027        0.07094       -1.28117
C         -3.49511        0.31247       -2.30335
H         -3.24955       -0.46226       -3.02970
H         -4.55028        0.26727       -2.03245
H         -3.23823        1.29850       -2.69090
H         -1.09728       -2.96613       -0.64118
H          0.45189       -3.79629       -0.32883
H         -1.49988       -4.44575        1.21923
H         -0.04012       -3.91426        2.07064
H         -2.33563       -2.14998        1.52230
H         -1.79772       -2.66696        3.00940
H          0.13043       -1.13607       -0.51601
H         -0.12675       -1.37981        1.10777
C         -0.28552       -3.10184        0.07512
C         -0.85273       -3.58056        1.41582
N          0.34092       -1.77096        0.27266
N         -1.52349       -2.45573        2.05887
H          1.37018       -1.75892        0.43477
H         -0.74098        1.04530        1.28810
H          0.91764        1.42613        1.84651
H         -0.97943        2.84675        2.85343
H          0.31555        3.79181        2.10042
H         -2.18768        3.09076        0.71977
H         -1.73014        4.60570        1.21588
H          0.03987        2.94183       -0.39054
H          1.49198        2.01911       -0.19150
C          0.04914        1.79720        1.30010
C         -0.50240        3.09205        1.89514
N          0.45624        2.04220       -0.11292
N         -1.39339        3.70088        0.91215
H          0.04763        1.31124       -0.73060
