38
2msa2dma_138.log	Energy: -1003280.1491990
S          0.78792       -1.49182        0.43380
O         -0.49174       -2.26398        0.31574
O          1.04703       -0.97988        1.78697
O          0.85138       -0.40566       -0.59885
H          0.41565        1.02899        0.13543
C          2.06892       -2.65404        0.02436
H          2.06763       -3.43093        0.78890
H          1.84486       -3.07503       -0.95589
H          3.01636       -2.10984        0.00148
S         -2.99265        0.08111       -0.39282
O         -2.62703        0.91363       -1.53223
O         -2.50962        0.55477        0.91831
O         -2.60622       -1.40496       -0.60811
H         -1.66967       -1.70709       -0.20575
C         -4.76092       -0.05646       -0.31746
H         -5.15893        0.95065       -0.19115
H         -5.10648       -0.49281       -1.25446
H         -5.02166       -0.68968        0.52987
N         -0.05295        1.83932        0.61629
C         -0.23834        2.93640       -0.35643
C          0.68961        2.19925        1.84275
H         -0.98231        1.44981        0.86761
H          0.73895        3.25912       -0.71908
H         -0.84626        2.55970       -1.18000
H         -0.74677        3.77038        0.13063
H          1.65663        2.61965        1.56265
H          0.11430        2.93310        2.40962
H          0.83743        1.28655        2.42077
N          3.86903        0.11028       -0.79052
C          4.74497        0.65440       -1.81089
C          3.90299        0.86312        0.44847
H          2.91085        0.05851       -1.12542
H          5.78934        0.54790       -1.49646
H          4.61844        0.09820       -2.74344
H          4.56733        1.72582       -2.01956
H          4.89577        0.78162        0.90537
H          3.69367        1.94325        0.31174
H          3.17416        0.44907        1.15170
