42
2msa2eda_433.log	Energy: -1072750.2531986
S          3.95716        0.25247        0.40915
O          3.66206       -0.38720        1.70670
O          3.12970        1.43277        0.09650
O          3.95376       -0.74022       -0.72841
H          2.53532       -0.92518       -1.36758
C          5.65421        0.81049        0.49457
H          5.72456        1.53960        1.30242
H          6.29037       -0.05106        0.69835
H          5.91404        1.26882       -0.45981
S         -1.32810        1.14998       -0.44615
O         -2.38095        2.12202       -0.84700
O         -0.75088        0.40216       -1.58350
O         -1.87311        0.22262        0.62034
H         -3.42580        0.52658        0.76905
C         -0.00808        2.06711        0.30839
H          0.33876        2.80080       -0.41956
H         -0.40112        2.56062        1.19744
H          0.80764        1.38301        0.55195
H         -5.80643        0.38566       -1.01226
H         -4.17894       -0.28444       -1.26430
H         -5.77332       -2.06465       -0.48087
H         -4.47155       -1.78932        0.68011
H         -7.23994       -0.89112        0.97296
H         -6.28272       -1.65058        2.05873
H         -4.12489        1.76669        0.00832
H         -5.03822        0.98113        1.24041
C         -4.94973       -0.08143       -0.51870
C         -5.36403       -1.33950        0.23404
N         -4.38796        0.87875        0.45827
N         -6.28601       -0.97000        1.30882
H         -0.00730       -2.49717       -1.38602
H          1.58698       -3.25327       -1.64299
H          0.84002       -3.32314        0.77402
H          2.39151       -2.51055        0.52258
H         -0.10104       -1.14912        1.20876
H          1.49674       -0.86135        1.66702
H          1.55061       -1.16058       -2.74725
H          0.89938       -0.39576       -1.43666
C          1.06021       -2.42653       -1.15933
C          1.31509       -2.42500        0.35104
N          1.54999       -1.14597       -1.73060
N          0.87251       -1.17606        0.93207
