18
2msa.log	Energy: -833646.1983103
S         -1.86389        0.08803        0.05603
O         -1.61192        1.50836       -0.11711
O         -1.20812       -0.56736        1.19602
O         -1.50892       -0.71117       -1.26682
S          2.04121       -0.11947       -0.07526
O          1.49473       -0.59887        1.33836
H          0.50391       -0.62790        1.34780
O          1.13581       -0.61933       -1.12048
O          3.43688       -0.47287       -0.13873
H         -0.51535       -0.74730       -1.34321
C         -3.60268       -0.23407        0.12806
H         -3.75176       -1.31028        0.20602
H         -3.97797        0.27792        1.01456
H         -4.05908        0.17003       -0.77515
C          1.86164        1.64827       -0.00618
H          2.44548        2.01130        0.83946
H          2.25385        2.04334       -0.94424
H          0.80227        1.89070        0.10120
