40
2msa1dma1eda_157.log	Energy: -1038020.1704651
S          2.81108       -0.33610       -0.46658
O          2.89350        0.58201       -1.58729
O          2.21304       -1.65846       -0.70763
O          2.07804        0.31218        0.75578
C          4.43086       -0.61076        0.21160
H          4.33187       -1.21097        1.11560
H          5.00966       -1.14208       -0.54453
H          4.87603        0.35956        0.42968
S         -0.84232        2.12177        0.23853
O         -1.53368        1.60888        1.43504
O         -1.14787        1.34956       -0.99585
O          0.63740        2.28087        0.43818
H          1.47949        1.16551        0.55324
C         -1.42184        3.78006       -0.04673
H         -2.50001        3.73402       -0.20099
H         -1.18223        4.37555        0.83413
H         -0.91772        4.16971       -0.93075
N         -1.19097       -1.30180        1.87555
C         -0.00993       -1.73790        2.61790
C         -2.42430       -1.91426        2.35614
H         -1.27886       -0.28425        1.93867
H          0.14903       -2.80993        2.45712
H          0.86516       -1.19924        2.24804
H         -0.10668       -1.56382        3.69970
H         -2.40935       -2.99101        2.15342
H         -2.57246       -1.77314        3.43711
H         -3.27879       -1.47423        1.83535
H         -1.15105       -2.29160       -2.66038
H         -1.41302       -3.28436       -1.20369
H         -3.56031       -2.58053       -2.03942
H         -3.26058       -1.72913       -0.52206
H         -4.09467       -0.38067       -2.50799
H         -2.71857        0.23548       -1.85861
H          0.38259       -1.64055       -0.92275
H         -0.71317       -0.39514       -1.10720
C         -1.50142       -2.27969       -1.62614
C         -2.94700       -1.80071       -1.57721
N         -0.61542       -1.39201       -0.83671
N         -3.11518       -0.57152       -2.33652
H         -0.86721       -1.42328        0.20977
