32
2msa2ma_10.log	Energy: -953976.2793039
S         -2.34589       -0.14830       -0.35068
O         -1.82623       -1.50048       -0.69275
O         -1.75658        0.92825       -1.19226
O         -2.24173        0.15423        1.10100
H         -1.02659        1.69700        1.40783
C         -4.08323       -0.19955       -0.74943
H         -4.18035       -0.42176       -1.81213
H         -4.54840       -0.98011       -0.14728
H         -4.51582        0.77417       -0.51927
S          2.52348       -0.02596       -0.35862
O          3.84116        0.58595       -0.23540
O          1.56749        0.34734        0.74520
O          2.52702       -1.51231       -0.51402
H          1.21822       -2.19679        0.12287
C          1.76863        0.60864       -1.85318
H          1.78686        1.69923       -1.80846
H          2.36260        0.26457       -2.70042
H          0.74102        0.24524       -1.92192
N          0.32556       -2.58632        0.54643
H         -0.48619       -2.13617        0.05508
C          0.26924       -2.29965        1.99813
H         -0.69635       -2.61155        2.39574
H          1.08199       -2.82395        2.50121
H          0.39998       -1.22623        2.12074
H          0.28757       -3.58507        0.35681
N         -0.33346        2.16031        0.80415
H          0.50474        1.50811        0.77943
C          0.01785        3.53306        1.20383
H          0.74094        3.93533        0.49420
H         -0.87459        4.15944        1.21361
H          0.46797        3.51374        2.19611
H         -0.77374        2.07606       -0.12958
