38
2msa2dma_176.log	Energy: -1003277.7631947
S          1.77546       -1.47453       -0.16107
O          2.91379       -0.57105       -0.42909
O          0.71917       -1.45354       -1.19274
O          1.20409       -1.24864        1.21451
C          2.43482       -3.13479       -0.12524
H          2.86728       -3.34310       -1.10421
H          3.19870       -3.18448        0.65076
H          1.62084       -3.82767        0.08968
S         -2.64228       -0.37489        0.11005
O         -2.43583        0.64700        1.12118
O         -2.30721       -0.09155       -1.27640
O         -4.22631       -0.75372        0.12935
H         -4.56148       -0.65711       -0.77344
C         -1.93043       -1.89379        0.67070
H         -0.86936       -1.69977        0.86104
H         -2.45133       -2.17753        1.58558
H         -2.05212       -2.63856       -0.11492
N          1.23763        1.50728        1.29813
C          0.28853        2.15435        2.22122
C          2.61901        2.01822        1.37367
H          1.24233        0.47225        1.44676
H          0.24596        3.22402        2.00344
H         -0.69715        1.71118        2.07541
H          0.61674        2.00607        3.25244
H          2.62815        3.07373        1.09183
H          2.99798        1.90840        2.39231
H          3.22772        1.42905        0.68656
H          0.87816        1.60862        0.27367
N          0.32986        1.67037       -1.27627
C          1.44298        1.83587       -2.21273
C         -0.71128        2.68154       -1.44398
H         -0.06792        0.73946       -1.41620
H          1.93694        2.79571       -2.02270
H          2.16219        1.02989       -2.05372
H          1.10841        1.82513       -3.26002
H         -0.28096        3.67335       -1.26446
H         -1.14747        2.67384       -2.45259
H         -1.51039        2.50823       -0.72019
