38
2msa1ma1tma_83.log	Energy: -1003278.4116943
S          0.88969        1.96406       -0.09118
O          1.78435        3.07003        0.23342
O          0.41349        1.23166        1.14112
O          1.45246        0.97394       -1.06320
H          2.14240       -0.25627       -0.35423
C         -0.57542        2.60905       -0.86983
H         -1.05997        3.28491       -0.16461
H         -0.26784        3.14399       -1.76868
H         -1.21707        1.76282       -1.12183
S         -1.31821       -1.49809       -0.20474
O         -0.19694       -2.40715       -0.45554
O         -1.65692       -0.55139       -1.26441
O         -1.09048       -0.74448        1.15431
H         -0.46693        0.09434        1.07922
C         -2.75714       -2.44417        0.22009
H         -2.97842       -3.08042       -0.63787
H         -2.52645       -3.04591        1.09888
H         -3.57067       -1.73518        0.40269
N         -4.35657        0.47023       -0.17421
H         -3.68565        0.33666       -0.92610
C         -3.86537        1.48003        0.76234
H         -3.70540        2.47427        0.31820
H         -4.57573        1.58761        1.58707
H         -2.91696        1.14129        1.18714
H         -5.23417        0.76156       -0.59009
N          2.83782       -0.94380        0.07006
C          4.07473       -0.14657        0.25103
H          4.37225        0.26359       -0.71393
H          3.86088        0.67751        0.93289
H          4.86224       -0.78578        0.65687
C          2.30568       -1.42842        1.36856
H          2.04717       -0.56180        1.97815
H          1.40964       -2.01678        1.17422
H          3.07011       -2.03650        1.85874
C          3.00834       -2.04284       -0.90977
H          2.03733       -2.51569       -1.05907
H          3.36170       -1.61719       -1.84958
H          3.73675       -2.76084       -0.52461
