29
2msa1a1ma_133.log	Energy: -929294.7947221
S          2.06989       -0.91200       -0.12583
O          3.35955       -0.86055       -0.81259
O          1.03831        0.01263       -0.70007
O          2.15240       -0.71143        1.35875
H          1.25625        0.53256        1.81770
C          1.40716       -2.55815       -0.33684
H          1.31399       -2.74913       -1.40688
H          2.10850       -3.26197        0.11242
H          0.43543       -2.60618        0.15627
S         -2.27119       -0.40932        0.07115
O         -1.82370       -1.67394        0.62835
O         -1.96153        0.83419        0.76436
O         -3.89044       -0.48535       -0.04058
H         -4.18244       -1.29424        0.40452
C         -1.82568       -0.26126       -1.63376
H         -2.16290       -1.16069       -2.14841
H         -2.30943        0.63025       -2.03345
H         -0.73227       -0.17216       -1.63906
N          0.64587        1.39727        1.94579
H          0.97713        2.11254        1.22745
H          0.69847        1.75412        2.89439
H         -0.31979        1.14695        1.70426
N          1.34844        2.87267       -0.29022
H          2.11701        3.51871       -0.43368
C          0.11034        3.38080       -0.88746
H          0.17939        3.54124       -1.97071
H         -0.69003        2.66031       -0.69509
H         -0.16942        4.32612       -0.41432
H          1.59309        1.98042       -0.72704
