37
2msa1ma1eda_389.log	Energy: -1013355.5608491
S          3.00157        0.48126       -0.35760
O          4.01957        1.33931       -0.92968
O          3.18714       -0.96479       -0.33719
O          1.64012        0.81550       -1.11244
H          0.97830        0.06330       -0.99607
C          2.66205        1.01448        1.30757
H          3.55551        0.80366        1.89698
H          2.46423        2.08656        1.28640
H          1.80335        0.44857        1.67752
S         -0.36337       -1.70675        0.50405
O         -0.00184       -0.86658        1.65484
O         -0.18414       -1.00201       -0.81117
O         -1.75073       -2.26168        0.57508
H         -2.77982       -1.37682       -0.30949
C          0.74225       -3.09937        0.47974
H          1.75170       -2.70467        0.34746
H          0.63982       -3.62353        1.43014
H          0.46348       -3.74384       -0.35388
N         -3.43247       -0.75615       -0.87143
H         -4.35431       -1.18720       -0.86505
C         -2.92717       -0.57503       -2.25181
H         -3.57250        0.11927       -2.79132
H         -1.91114       -0.18947       -2.18410
H         -2.90008       -1.53851       -2.76051
H         -3.49724        0.18968       -0.36737
H         -2.43132        2.47940        2.13576
H         -2.19565        0.74429        1.84574
H         -0.20281        1.98347        1.17226
H         -0.94594        1.20439       -0.20919
H         -1.11024        4.06332        0.38899
H         -0.57551        3.32869       -0.96528
H         -4.35538        1.80792        1.00532
H         -3.41498        2.48632       -0.15623
C         -2.32106        1.71378        1.35452
C         -1.08294        2.00749        0.51859
N         -3.50225        1.68239        0.46866
N         -1.25677        3.26189       -0.21702
