38
2msa2dma_37.log	Energy: -1003287.7629659
S         -1.61930        1.59715       -0.14236
O         -2.88536        0.87870        0.07441
O         -0.99977        1.42678       -1.45966
O         -0.63903        1.25043        0.97964
C         -1.94365        3.33696        0.08163
H         -2.65241        3.64332       -0.68818
H         -2.36620        3.48462        1.07541
H         -1.00239        3.87618       -0.02774
S          2.52897        0.27831        0.06228
O          2.09333       -0.04016       -1.29163
O          2.44336       -0.79881        1.05008
O          1.82052        1.56863        0.60458
H          0.79563        1.44074        0.72619
C          4.20001        0.87981        0.00922
H          4.82099        0.05566       -0.34293
H          4.24006        1.71806       -0.68568
H          4.49111        1.18268        1.01449
N         -1.13971       -1.50911        1.31986
C         -0.18894       -2.28522        2.13860
C         -2.55494       -1.87359        1.52380
H         -1.00891       -0.49386        1.47690
H         -0.29825       -3.34504        1.89817
H          0.82309       -1.95057        1.90779
H         -0.40240       -2.13058        3.19880
H         -2.69704       -2.91692        1.23341
H         -2.81938       -1.74931        2.57636
H         -3.16721       -1.21337        0.90955
H         -0.88548       -1.61327        0.25171
N         -0.52981       -1.67205       -1.31235
C         -1.76321       -1.76256       -2.09507
C          0.41212       -2.75432       -1.59194
H         -0.07926       -0.77668       -1.51180
H         -2.29886       -2.68004       -1.82556
H         -2.39368       -0.90096       -1.86766
H         -1.56728       -1.78486       -3.17593
H         -0.02758       -3.70886       -1.28063
H          0.66179       -2.82421       -2.65971
H          1.33282       -2.58301       -1.03126
