37
2msa1ma1eda_477.log	Energy: -1013351.0129868
S         -1.10162       -1.59685       -0.23773
O         -0.75221       -0.55773       -1.21942
O         -1.99694       -2.64255       -0.72146
O         -1.76172       -0.90716        1.02318
H         -2.79213       -0.77342        0.81319
C          0.37163       -2.26413        0.46785
H          0.97129       -2.67031       -0.34768
H          0.92143       -1.44534        0.94135
H          0.07966       -3.03834        1.17676
S          3.33306        0.01308        0.15759
O          3.45099       -1.40148       -0.21529
O          2.15191        0.32099        1.00909
O          3.38161        0.95207       -1.01893
H          1.91673        1.40622       -1.34675
C          4.77976        0.42639        1.12176
H          4.78710       -0.21063        2.00683
H          5.66160        0.23901        0.50867
H          4.72093        1.47791        1.40309
N          0.88206        1.68070       -1.41357
H          0.67500        2.01745       -2.35062
C          0.55624        2.68601       -0.37470
H         -0.52373        2.84257       -0.34321
H          0.91045        2.27776        0.57254
H          1.08391        3.61394       -0.59771
H          0.32865        0.81734       -1.26170
H         -3.66030        0.78403       -1.19584
H         -5.38161        0.86709       -0.76924
H         -4.48498        2.83883        0.11944
H         -4.62759        1.77047        1.51534
H         -2.47584        2.85353        1.45831
H         -2.17832        1.28856        1.09425
H         -4.90877       -0.64084        1.05676
H         -4.33338       -1.30593       -0.32514
C         -4.36866        0.76380       -0.36245
C         -4.07430        1.93094        0.57301
N         -4.20883       -0.53325        0.32704
N         -2.64041        2.13240        0.76415
