43
2msa1eda1tma_184.log	Energy: -1062672.3913750
S         -0.41387        2.13258        0.02760
O         -1.49080        1.96274        1.01471
O         -0.67720        1.62467       -1.32004
O          0.87753        1.54103        0.60264
C         -0.07075        3.87807       -0.10633
H         -0.96882        4.35810       -0.49634
H          0.17297        4.26176        0.88415
H          0.76263        4.01252       -0.79640
S          3.28407       -0.62355       -0.27555
O          2.72399       -1.56274       -1.24113
O          2.96955       -0.85448        1.13609
O          2.93196        0.85559       -0.66256
H          2.05759        1.16908       -0.20290
C          5.04690       -0.58046       -0.48502
H          5.41792       -1.58217       -0.26637
H          5.25999       -0.30912       -1.51876
H          5.45963        0.14965        0.21014
H         -1.50446       -2.01636        1.94964
H         -1.75653       -0.42393        1.18197
H         -1.56759       -2.26222       -0.50963
H         -0.27925       -1.07869       -0.69668
H          0.01901       -3.81466        0.16616
H          1.14196       -2.78350       -0.47605
H          0.07194       -0.59772        2.94557
H          0.92770       -1.45708        1.78288
C         -1.06573       -1.25769        1.29697
C         -0.66120       -1.86885       -0.04097
N          0.18203       -0.76009        1.94808
N          0.37936       -2.86959        0.18818
H          0.49499        0.13875        1.50620
N         -3.92448       -0.92624       -0.32341
C         -3.48633       -0.40496       -1.61005
H         -2.69144        0.33252       -1.46942
H         -3.09044       -1.22006       -2.22505
H         -4.31457        0.07213       -2.16910
C         -4.92695       -1.96148       -0.48927
H         -4.52388       -2.77778       -1.09756
H         -5.20920       -2.36931        0.48669
H         -5.84517       -1.58773       -0.98379
C         -4.41425        0.14694        0.52796
H         -4.67056       -0.25211        1.51534
H         -3.63893        0.90888        0.64989
H         -5.31747        0.63201        0.10926
