40
2msa1dma1eda_242.log	Energy: -1038022.8234245
S          3.38725       -0.02928       -0.25501
O          3.20056        1.41123       -0.48130
O          2.88169       -0.88283       -1.38001
O          2.83217       -0.50755        1.04795
H          1.13429       -1.02799        0.65967
C          5.14691       -0.32317       -0.18015
H          5.58315        0.00075       -1.12533
H          5.54938        0.26024        0.64832
H          5.31512       -1.38816       -0.02039
S         -1.10563        1.75964        0.32780
O         -0.79982        0.99949        1.56291
O         -2.37215        2.50476        0.35736
O         -1.08571        0.79881       -0.86191
H         -2.56467        0.09183       -0.96295
C          0.23675        2.88498        0.04146
H          0.26399        3.57567        0.88488
H          1.17295        2.32248       -0.03350
H          0.03102        3.41794       -0.88701
N         -3.37478       -0.55686       -0.75191
C         -3.64222       -1.43822       -1.90156
C         -4.54015        0.23251       -0.29564
H         -2.98173       -1.11534        0.05589
H         -3.97680       -0.83874       -2.74944
H         -2.72257       -1.95826       -2.17324
H         -4.41242       -2.16536       -1.63772
H         -4.93356        0.80591       -1.13608
H         -5.30713       -0.44289        0.08856
H         -4.20160        0.93037        0.47121
H         -0.84554       -2.77461       -0.74818
H          0.59079       -3.39945        0.07790
H         -1.34531       -3.63436        1.51563
H         -0.18365       -2.51004        2.22847
H         -2.56885       -1.83871        2.28582
H         -1.58021       -0.70679        1.65193
H          1.27131       -1.36828       -0.89238
H         -0.10065       -0.53889       -0.38847
C         -0.15914       -2.60512        0.08705
C         -0.90828       -2.63641        1.41232
N          0.53845       -1.32702       -0.14367
N         -1.98518       -1.63924        1.47857
