37
2msa1ma1eda_194.log	Energy: -1013363.3988817
S         -2.36551       -0.66288       -0.10935
O         -1.72425        0.05621       -1.26314
O         -2.02977       -0.03691        1.18878
O         -2.07060       -2.11168       -0.17427
C         -4.12321       -0.47833       -0.33766
H         -4.62415       -0.99747        0.47966
H         -4.35796        0.58617       -0.32033
H         -4.38892       -0.91915       -1.29831
S          0.69782        2.27743       -0.24005
O          1.54995        3.39912       -0.57157
O          1.28567        0.92782       -0.24780
O         -0.53840        2.29741       -1.21018
H         -1.04189        1.40622       -1.20267
C         -0.03549        2.53014        1.35978
H          0.76934        2.52007        2.09611
H         -0.52790        3.50265        1.34778
H         -0.75206        1.72264        1.53298
N          0.51492       -1.50732        2.06681
H         -0.36368       -0.98603        2.02766
C          1.54991       -0.75451        2.77849
H          1.29578       -0.53872        3.82409
H          2.48959       -1.31084        2.74574
H          1.71075        0.19138        2.25603
H          0.31363       -2.38111        2.54300
H          1.96393       -3.44148       -0.78650
H          1.46223       -2.77385       -2.35945
H          3.83553       -2.27281       -1.82631
H          2.87499       -0.80809       -2.05353
H          4.43066       -1.07741        0.00635
H          2.96250       -0.39624        0.21396
H         -0.25004       -2.23285       -0.78586
H          0.79873       -1.73194        0.39783
C          1.78224       -2.52045       -1.34519
C          3.04270       -1.66364       -1.38201
N          0.67962       -1.80233       -0.66961
N          3.43558       -1.26157       -0.03601
H          0.59347       -0.83051       -0.99121
