14
1a1dma_01.log	Energy: -120286.2339514
N         -2.51044       -0.01577        0.04819
H         -2.79770        0.73289        0.66907
H         -2.85075       -0.88870        0.43635
H         -2.96903        0.12665       -0.84517
N          0.62730       -0.00284       -0.46650
C          1.15537        1.21452        0.11747
C          1.20430       -1.19661        0.11998
H         -0.38517       -0.02228       -0.34825
H          2.22556        1.30236       -0.10462
H          0.65434        2.08235       -0.32150
H          1.03991        1.26900        1.21723
H          2.27690       -1.24188       -0.10340
H          1.09222       -1.25284        1.21996
H          0.73764       -2.08468       -0.31624
