14
1a1dma_02.log	Energy: -120286.5263972
N          2.54448       -0.22444       -0.01604
H          2.80640       -0.15964       -0.99349
H          1.54316       -0.42243        0.03792
H          3.04866       -1.00672        0.38627
N         -0.56197       -0.11107        0.36827
C         -1.66669       -0.87350       -0.19215
C         -0.54221        1.27649       -0.07456
H         -0.60219       -0.14138        1.38126
H         -1.52890       -0.96658       -1.27462
H         -1.67237       -1.88117        0.23145
H         -2.65417       -0.41305       -0.01653
H         -0.38688        1.30495       -1.15849
H         -1.47545        1.82126        0.14701
H          0.29752        1.79541        0.39392
