16
1a1eda_05.log	Energy: -155020.2923960
N          2.50991        0.06588        0.03883
H          3.21207       -0.26583        0.69012
H          2.94858        0.17749       -0.86835
H          1.76718       -0.63325       -0.04067
H         -1.15165        0.57355        1.43836
H         -2.23268        1.19679        0.19044
H         -2.29140       -1.13728       -0.04365
H         -1.30174       -0.53394       -1.38985
H         -0.24418       -1.73839        1.06779
H         -0.19832       -2.38070       -0.42867
H         -0.31646        2.50213        0.07358
H          0.70502        1.22324       -0.01128
C         -1.26306        0.71012        0.34585
C         -1.32972       -0.66785       -0.30419
N         -0.23251        1.54608       -0.25210
N         -0.18307       -1.50303        0.08074
