16
1a1eda_02.log	Energy: -155021.4690635
N         -2.39200        0.11053        0.18638
H         -3.12988        0.48259       -0.40156
H         -1.64295        0.80456        0.24256
H         -2.77844       -0.02227        1.11453
H          2.28992        0.45557       -0.42409
H          1.77168        1.02430        1.17688
H          1.67174       -1.46053        0.87439
H          0.13778       -0.73669        1.37510
H          0.34539       -2.39231       -0.68393
H         -0.76984       -1.18971       -0.64100
H          0.73354        2.37458       -0.45369
H          0.16554        1.07438       -1.26285
C          1.42197        0.56868        0.24362
C          0.85104       -0.81607        0.54059
N          0.38512        1.42939       -0.33473
N          0.23081       -1.38708       -0.65474
