16
1a1eda_06.log	Energy: -155019.3471616
N          2.43309       -0.17184        0.21369
H          3.02341        0.43977        0.76672
H          1.73352        0.39706       -0.26653
H          3.02071       -0.61238       -0.48586
H         -2.19822       -0.52885       -0.57868
H         -1.88804       -1.07770        1.05799
H         -1.74373        1.33825        0.96696
H         -0.16170        0.65003        1.37603
H         -0.85489        1.49172       -1.34973
H          0.05134        2.35691       -0.30900
H         -0.05470       -1.23568       -1.21838
H          0.38292       -1.60964        0.29172
C         -1.40822       -0.63562        0.17722
C         -0.89719        0.75533        0.56984
N         -0.41957       -1.57297       -0.33358
N         -0.22469        1.41227       -0.55634
