16
1a1eda_01.log	Energy: -155018.6490598
N         -3.33195       -0.26152       -0.19774
H         -3.48408        0.13969       -1.11663
H         -4.09940        0.02934        0.39806
H         -3.37496       -1.27095       -0.28779
H          2.22682        0.99245        0.72886
H          2.42957        0.88113       -1.01291
H          0.20663        1.75657       -0.51880
H          0.04605        0.14858       -1.23814
H         -0.23671        0.73879        1.61247
H         -1.34909        0.07951        0.59118
H          1.66369       -1.38047        0.66527
H          2.14311       -1.44315       -0.89083
C          1.88884        0.44845       -0.16351
C          0.38469        0.68174       -0.34042
N          2.28253       -0.94705       -0.01568
N         -0.35241        0.14391        0.79811
