16
1a1eda_07.log	Energy: -155019.8296517
N         -2.38214        0.23852        0.19836
H         -3.03429        0.49927       -0.53368
H         -2.92687        0.00675        1.02199
H         -1.89596       -0.60564       -0.10642
H         -0.05886       -0.63989        1.32299
H          1.46762       -1.47193        1.06351
H          1.67461        1.00917        1.29005
H          2.33686        0.40938       -0.24181
H         -0.41405        1.44664       -0.05585
H          0.88053        2.30212       -0.64443
H          0.10383       -0.70766       -1.33378
H          0.78639       -2.15310       -0.96436
C          0.74564       -0.79723        0.59217
C          1.40629        0.55640        0.32149
N          0.18437       -1.41989       -0.61059
N          0.50757        1.37422       -0.48779
