23
1dma1tma_02.log	Energy: -194263.6418730
N          1.27633        0.02015        0.06437
C          1.75949       -1.33437        0.27127
H          1.86218       -1.53041        1.34223
H          1.03978       -2.04930       -0.13898
H          2.73937       -1.51229       -0.21091
C          1.06307        0.29566       -1.34668
H          0.34581       -0.42177       -1.75724
H          0.64416        1.29893       -1.46869
H          1.99720        0.23248       -1.93576
C          2.15942        1.00152        0.67029
H          1.73511        2.00254        0.54975
H          2.25891        0.80017        1.74055
H          3.16989        0.99576        0.21949
N         -1.78240        0.00575        0.62908
C         -2.29012        1.21488        0.01180
C         -2.21639       -1.19435       -0.05735
H         -0.76286        0.03734        0.64645
H         -3.37944        1.26671        0.12583
H         -1.86271        2.09038        0.50923
H         -2.06675        1.28941       -1.07055
H         -3.30198       -1.31212        0.04186
H         -1.98310       -1.19810       -1.14074
H         -1.74594       -2.07113        0.39736
