22
1dma1eda_11.log	Energy: -204334.8693201
N          1.82731       -0.15878        0.47863
C          2.99079        0.71457        0.46054
C          1.89464       -1.21520       -0.51971
H          1.71047       -0.56104        1.40200
H          3.02786        1.24318       -0.49833
H          2.90289        1.46347        1.25172
H          3.94726        0.17958        0.58594
H          1.85546       -0.76678       -1.51860
H          2.81204       -1.82449       -0.45701
H          1.02925       -1.87571       -0.41793
H         -1.06311       -1.10870        0.63814
H         -2.43079       -1.62732       -0.33912
H         -0.87241       -0.38929       -1.73726
H         -2.35774        0.56085       -1.56591
H          0.12754        1.02117       -0.07512
H         -0.61266        2.05500       -1.13115
H         -2.46428        0.74584        1.36095
H         -3.74872        0.05332        0.63690
C         -1.94792       -0.74592        0.09810
C         -1.48015        0.19090       -1.02040
N         -2.85304       -0.14806        1.07113
N         -0.77530        1.33037       -0.44211
