22
1dma1eda_01.log	Energy: -204335.3858420
N         -1.94925       -0.23752        0.43905
C         -1.95308        1.20546        0.54710
C         -2.33913       -0.70629       -0.87350
H         -1.03151       -0.60721        0.69038
H         -2.97837        1.58748        0.47084
H         -1.55286        1.50474        1.51964
H         -1.35786        1.71511       -0.23827
H         -3.39282       -0.46741       -1.06216
H         -1.75018       -0.26156       -1.70131
H         -2.22946       -1.79329       -0.92573
H          2.81540       -1.19697       -0.09508
H          1.35563       -1.82328       -0.87712
H          1.97166        0.32898       -1.85761
H          0.42050        0.45332       -1.01406
H          2.97105        1.50601       -0.04760
H          1.53580        2.27609       -0.20955
H          1.20304       -1.95338        1.56005
H          1.28709       -0.31099        1.62981
C          1.72930       -1.03808       -0.21062
C          1.49635        0.31931       -0.86533
N          1.00244       -1.09883        1.05343
N          1.96570        1.38777        0.01780
