23
1dma1tma_04.log	Energy: -194260.2868089
N          2.07835        0.01030       -0.20213
C          1.70630        1.30460        0.33515
H          2.40160        1.59032        1.12989
H          1.75728        2.06313       -0.45116
H          0.68166        1.31830        0.75649
C          1.24963       -0.36095       -1.33332
H          1.30882        0.41049       -2.10647
H          1.60877       -1.30100       -1.76256
H          0.18458       -0.49305       -1.06078
C          2.06312       -1.01308        0.82397
H          2.40123       -1.96529        0.40508
H          2.74221       -0.73659        1.63572
H          1.05484       -1.16934        1.25982
N         -2.08901        0.00890        0.65677
C         -2.16865        1.22989       -0.12462
C         -2.55491       -1.15832       -0.07011
H         -1.13753       -0.13788        0.97606
H         -3.21993        1.45410       -0.33560
H         -1.75756        2.06555        0.44829
H         -1.63580        1.17565       -1.09172
H         -3.62832       -1.05755       -0.26406
H         -2.05283       -1.30798       -1.04382
H         -2.40740       -2.05616        0.53578
