22
1dma1eda_17.log	Energy: -204334.2591255
N         -2.07617        0.25270       -0.51645
C         -1.96880        0.93418        0.76467
C         -2.02431       -1.19730       -0.37687
H         -2.93718        0.52425       -0.97804
H         -0.97566        0.74877        1.18650
H         -2.08055        2.01305        0.62011
H         -2.71847        0.60306        1.50530
H         -1.05447       -1.47661        0.05051
H         -2.81500       -1.60027        0.28116
H         -2.12104       -1.66542       -1.36096
H          3.05952       -0.68987       -0.15128
H          1.83860       -1.62364       -1.02984
H          1.84321        0.68782       -1.80497
H          0.30219        0.32087       -1.00665
H          2.46365        1.93252        0.12341
H          0.87503        2.29323       -0.03632
H          1.74681       -1.98287        1.40363
H          1.30253       -0.41001        1.57655
C          1.97185       -0.82935       -0.28619
C          1.37431        0.46203       -0.83491
N          1.28422       -1.20643        0.94463
N          1.52802        1.54056        0.14620
