22
1dma1eda_07.log	Energy: -204335.4853807
N          1.97143        0.08954       -0.54134
C          1.67895       -1.33214       -0.40908
C          2.52288        0.65929        0.68120
H          2.61954        0.23442       -1.30770
H          0.87986       -1.47466        0.32608
H          1.32413       -1.72792       -1.36457
H          2.54904       -1.92755       -0.08446
H          1.75843        0.62496        1.46423
H          3.41761        0.12899        1.04818
H          2.78165        1.70864        0.51484
H         -1.07539       -0.98644       -1.01249
H         -2.82633       -1.03192       -0.88575
H         -2.04411        1.20506       -1.54664
H         -2.82337        1.28269        0.04366
H          0.09841        1.14359       -0.33706
H         -0.76533        2.44124        0.21313
H         -1.16046       -0.57664        1.45380
H         -2.69515       -1.11958        1.41287
C         -1.92401       -0.62583       -0.41666
C         -1.94256        0.90350       -0.49017
N         -1.80247       -1.16990        0.93235
N         -0.74755        1.42982        0.16186
