22
1dma1eda_03.log	Energy: -204334.5737268
N         -1.85084       -0.47180       -0.31202
C         -1.84198       -0.72845        1.11274
C         -2.41505        0.82011       -0.64896
H         -0.90728       -0.55949       -0.68614
H         -2.86966       -0.79062        1.48913
H         -1.35800       -1.68922        1.31339
H         -1.32200        0.04965        1.70652
H         -3.48237        0.83771       -0.39952
H         -1.93942        1.66897       -0.12069
H         -2.32249        0.99311       -1.72476
H          2.88393        0.91578       -0.51745
H          2.69084        0.96714        1.22463
H          2.75344       -1.34395        0.51280
H          1.13237       -0.97744        1.12560
H          1.80759       -1.05049       -1.73121
H          0.90437       -2.14369       -0.92494
H          0.53108        1.40549       -0.70870
H          0.39844        1.54225        0.90843
C          2.16993        0.71893        0.29348
C          1.83259       -0.77500        0.30632
N          1.04897        1.63282        0.13400
N          1.17704       -1.16656       -0.94319
