22
1dma1eda_08.log	Energy: -204335.7297530
N         -1.59048       -0.09530       -0.13479
C         -1.84065       -0.29172        1.28042
C         -2.78726        0.22969       -0.88715
H         -0.87745        0.62667       -0.24964
H         -2.47404       -1.17373        1.42958
H         -0.89135       -0.47280        1.79502
H         -2.34072        0.56603        1.76666
H         -3.48445       -0.61572       -0.86155
H         -3.32350        1.11545       -0.50034
H         -2.52653        0.41420       -1.93281
H          1.71564       -0.71108        1.32944
H          3.03763       -1.20390        0.26932
H          3.12715        1.13502        0.27558
H          2.38323        0.70000       -1.27657
H          0.96295        1.71087        1.08011
H          1.09153        2.42049       -0.37971
H          1.18605       -2.46803       -0.36999
H          0.21039       -1.16304       -0.56520
C          2.05033       -0.72830        0.27385
C          2.22518        0.71292       -0.19416
N          1.17870       -1.48427       -0.61310
N          1.02863        1.52015        0.08394
