22
1dma1eda_13.log	Energy: -204334.9072135
N          2.31112       -0.11716       -0.45878
C          2.85006       -0.43506        0.85657
C          1.79177        1.24165       -0.53407
H          3.02396       -0.25423       -1.16639
H          2.03265       -0.43054        1.58542
H          3.28691       -1.43710        0.84429
H          3.61757        0.27905        1.19989
H          0.92523        1.32430        0.13119
H          2.52651        2.00910       -0.23753
H          1.45773        1.45270       -1.55358
H         -3.23417       -0.94518        0.35586
H         -3.46617        0.29081       -0.87123
H         -1.73213       -1.26180       -1.61762
H         -0.99813        0.31453       -1.30182
H         -0.78336       -2.02550        0.43330
H          0.42046       -1.09263       -0.21041
H         -1.80092        0.65494        1.49944
H         -2.27540        1.81901        0.45910
C         -2.75640       -0.08022       -0.12308
C         -1.47332       -0.54811       -0.81766
N         -2.56320        0.94687        0.89278
N         -0.52983       -1.08214        0.16022
