22
1dma1eda_14.log	Energy: -204335.0481603
N          1.53347        0.09153       -0.17114
C          2.37468        1.06414        0.50311
C          2.27154       -1.07516       -0.61844
H          0.77883       -0.20351        0.44860
H          3.11052        1.46753       -0.20176
H          1.76266        1.89914        0.85743
H          2.92758        0.64980        1.36550
H          2.99433       -0.78438       -1.38905
H          2.82972       -1.58436        0.18869
H          1.58177       -1.79787       -1.06606
H         -3.08755        0.66930        0.35131
H         -2.73944        0.69377       -1.36761
H         -2.57413       -1.57885       -0.55019
H         -0.98141       -1.01733       -1.08884
H         -1.78949       -1.03367        1.73455
H         -0.79746       -2.11924        1.03199
H         -0.96807        1.56857        0.79298
H         -0.49040        1.45993       -0.74944
C         -2.27975        0.54922       -0.38317
C         -1.74882       -0.88743       -0.31619
N         -1.30840        1.61068       -0.16229
N         -1.11983       -1.15841        0.98057
