22
1dma1eda_12.log	Energy: -204334.3712784
N         -2.37114        0.10772       -0.53215
C         -2.35221        1.36285        0.20464
C         -2.75512       -1.02698        0.29414
H         -2.99459        0.18418       -1.32788
H         -1.58508        1.30838        0.98443
H         -2.08650        2.18123       -0.46921
H         -3.31229        1.60167        0.69251
H         -1.98976       -1.18391        1.06261
H         -3.72458       -0.89451        0.80317
H         -2.80259       -1.93120       -0.31845
H          2.93056       -1.29046        0.58117
H          3.01579        0.14894        1.58545
H          0.69065       -0.56635        1.40728
H          0.88487        0.97748        0.56278
H          0.74623       -1.62754       -0.76792
H         -0.31678       -0.37781       -0.89511
H          2.98262        0.22841       -1.33245
H          3.33672        1.46147       -0.32877
C          2.67089       -0.22351        0.61420
C          1.14754       -0.08753        0.52203
N          3.41403        0.45504       -0.43978
N          0.66541       -0.61548       -0.74945
