25
1eda1tma_02.log	Energy: -228995.8270801
N         -1.93253        0.03217       -0.02126
C         -1.68603        1.30987        0.62756
H         -0.82229        1.22499        1.29359
H         -1.45490        2.06762       -0.12584
H         -2.55258        1.65471        1.22231
C         -3.03396        0.12217       -0.96475
H         -2.81347        0.88362       -1.71837
H         -3.16408       -0.83687       -1.47459
H         -3.98982        0.38554       -0.47382
C         -2.15242       -1.02283        0.95353
H         -2.27513       -1.98170        0.44163
H         -1.28581       -1.09963        1.61681
H         -3.05036       -0.84319        1.57435
H          3.57987       -0.89394       -0.76261
H          3.58780       -0.92524        0.99407
H          1.48852       -1.87728        0.19369
H          1.15183       -0.34350        1.00617
H          1.20873       -0.71704       -1.89435
H         -0.04246       -0.20464       -0.94329
H          2.86251        1.42901       -0.57273
H          3.15658        1.38115        1.02959
C          3.11320       -0.45115        0.12749
C          1.61778       -0.78380        0.11449
N          3.42625        0.97215        0.13993
N          0.97252       -0.19706       -1.05531
