25
1eda1tma_05.log	Energy: -228996.6250758
N          1.63197        0.01300       -0.08196
C          1.32709       -1.39317       -0.29972
H          0.44206       -1.68124        0.27571
H          1.11393       -1.56567       -1.35893
H          2.16558       -2.05258       -0.00617
C          2.74407        0.44559       -0.91086
H          2.50770        0.27957       -1.96592
H          2.92227        1.51509       -0.76418
H          3.68097       -0.09561       -0.67799
C          1.89151        0.27350        1.32542
H          2.07676        1.34127        1.47706
H          1.01415       -0.00254        1.91666
H          2.76643       -0.28837        1.70260
H         -1.26780       -0.79910       -1.16364
H         -3.02005       -0.86269       -1.26322
H         -2.19232        1.44606       -1.49339
H         -3.17511        1.29481       -0.02488
H         -0.22889        1.16394       -0.01251
H         -1.15282        2.41760        0.54825
H         -1.67048       -0.74491        1.30926
H         -3.17060       -1.29277        0.99421
C         -2.18960       -0.52911       -0.63226
C         -2.22612        0.99458       -0.48734
N         -2.22383       -1.26261        0.62968
N         -1.13577        1.41800        0.38594
