25
1eda1tma_01.log	Energy: -228995.9374584
N          1.95728       -0.05026       -0.00212
C          2.23486        0.90293        1.06119
H          1.31478        1.43388        1.32191
H          2.58819        0.37324        1.95076
H          3.00251        1.64435        0.77070
C          3.12700       -0.85164       -0.31894
H          3.46477       -1.38339        0.57525
H          2.87236       -1.59295       -1.08182
H          3.96871       -0.24053       -0.69641
C          1.44339        0.62734       -1.18186
H          1.20802       -0.10807       -1.95710
H          0.52376        1.16136       -0.92327
H          2.16648        1.35326       -1.59923
H         -3.65163       -0.65073        0.82662
H         -3.78984       -0.71526       -0.92357
H         -1.88124       -2.06950       -0.22480
H         -1.29201       -0.66037       -1.11397
H         -1.19674       -0.97457        1.79107
H          0.04588       -0.67158        0.74551
H         -2.48723        1.46454        0.51729
H         -2.88690        1.44947       -1.06426
C         -3.16670       -0.33450       -0.10646
C         -1.77555       -0.97237       -0.17971
N         -3.17658        1.12233       -0.14744
N         -0.94467       -0.50688        0.92669
