25
1eda1tma_04.log	Energy: -228995.5423784
N         -1.72599        0.07016       -0.14249
C         -1.45216        0.48113        1.22373
H         -0.41876        0.23168        1.47835
H         -1.58222        1.56405        1.31948
H         -2.12372       -0.01045        1.95494
C         -3.06189        0.45432       -0.55534
H         -3.18598        1.53744       -0.45890
H         -3.21958        0.18511       -1.60426
H         -3.85077       -0.03694        0.04835
C         -1.50954       -1.35911       -0.30518
H         -1.64603       -1.63412       -1.35620
H         -0.48865       -1.60996        0.00122
H         -2.21493       -1.96002        0.30227
H          3.46978       -0.48168       -0.49741
H          2.19194       -1.41708       -1.28806
H          1.97182        0.95373       -1.83755
H          0.57059        0.41154       -0.89620
H          2.75654        2.07064        0.10532
H          1.14047        2.31872        0.18933
H          2.44293       -1.99701        1.08048
H          1.97182       -0.47218        1.47141
C          2.38296       -0.67969       -0.49974
C          1.64583        0.61033       -0.84353
N          1.89174       -1.20463        0.77076
N          1.86045        1.60657        0.20999
