25
1eda1tma_08.log	Energy: -228994.8595415
N          2.02890        0.03784        0.02530
C          1.76335       -0.15031       -1.39011
H          1.30907       -1.13213       -1.55326
H          1.05717        0.61077       -1.73616
H          2.68006       -0.08297       -2.00639
C          2.56637        1.36029        0.29219
H          1.86138        2.12114       -0.05625
H          2.70509        1.49307        1.36892
H          3.53880        1.53195       -0.20741
C          2.88984       -1.00690        0.55053
H          3.02820       -0.86546        1.62598
H          2.42285       -1.98350        0.39341
H          3.88629       -1.01611        0.06901
H         -1.37692       -0.45000       -1.10504
H         -1.42084       -1.77201        0.06772
H         -3.68258       -1.26036       -0.60658
H         -3.46112       -0.77835        1.08858
H         -3.49745        1.05777       -1.19561
H         -4.49420        1.04613        0.10102
H          0.02536        0.06482        0.79501
H         -1.31831        1.02662        0.90775
C         -1.66733       -0.71209       -0.06846
C         -3.17657       -0.54236        0.05817
N         -0.98328        0.06859        0.94888
N         -3.54803        0.85026       -0.20341
