25
1eda1tma_03.log	Energy: -228997.0367891
N         -1.58524       -0.00630        0.05541
C         -1.98934       -0.60574        1.31531
H         -1.19912       -1.26852        1.68020
H         -2.15472        0.17531        2.06349
H         -2.91882       -1.19864        1.22168
C         -2.59391        0.91486       -0.44010
H         -2.78136        1.69523        0.30372
H         -2.23653        1.39248       -1.35753
H         -3.55352        0.41152       -0.66317
C         -1.26778       -1.02207       -0.93754
H         -0.89949       -0.53968       -1.84762
H         -0.47746       -1.67941       -0.56360
H         -2.14587       -1.64219       -1.19808
H          1.09369       -0.79938        1.03333
H          2.81605       -0.84827        1.37442
H          1.97660        1.44874        1.50722
H          3.11424        1.31326        0.15413
H          0.19092        1.17872       -0.15796
H          1.16216        2.43843       -0.62186
H          1.78266       -0.77646       -1.34843
H          3.27547       -1.21288       -0.86849
C          2.07794       -0.51873        0.63556
C          2.12084        1.00648        0.50641
N          2.29496       -1.25003       -0.60801
N          1.12865        1.43675       -0.47445
