19
1ma1eda_15.log	Energy: -179674.6456897
N          2.33607        0.18928       -0.62262
H          1.41372        0.52451       -0.89374
C          2.29087       -0.32948        0.74284
H          1.53380       -1.11004        0.90803
H          3.27295       -0.72827        1.01483
H          2.08106        0.49615        1.43186
H          2.60202       -0.54332       -1.27143
H         -2.68829       -0.28767       -0.64181
H         -2.48384       -1.01350        0.95762
H         -2.06992        1.35612        1.11742
H         -0.54812        0.48169        1.38600
H         -1.28633        1.79411       -1.13352
H         -0.07872        2.21914       -0.12138
H         -1.33252       -2.31250       -0.73486
H         -0.35404       -1.03332       -1.05644
C         -1.93971       -0.54799        0.12868
C         -1.29861        0.73870        0.63217
N         -0.91860       -1.47683       -0.33844
N         -0.61419        1.42891       -0.46534
