19
1ma1eda_08.log	Energy: -179675.6847431
N         -2.46360        0.46751       -0.09805
H         -3.18613        0.79216       -0.73066
C         -2.47337       -0.98695       -0.01262
H         -2.25471       -1.51212       -0.95693
H         -1.73331       -1.31158        0.72671
H         -3.44937       -1.33098        0.34386
H         -1.56747        0.80668       -0.45149
H          1.61499        1.00004        1.42975
H         -0.07297        0.46612        1.41210
H          1.37130       -1.46790        1.12675
H          0.48296       -1.17596       -0.37865
H          3.29280       -0.47853        0.07324
H          2.67023       -1.46796       -1.07075
H          0.34725        2.40485       -0.05177
H          1.25631        1.42396       -1.01016
C          0.81917        0.58596        0.78698
C          1.26574       -0.77798        0.27560
N          0.48625        1.44471       -0.34665
N          2.48576       -0.63721       -0.52126
