17
1ma1dma_03.log	Energy: -144942.7271221
N         -1.89016       -0.80094        0.31063
H         -2.10934       -1.58310       -0.29664
C         -2.37930        0.45400       -0.26089
H         -3.45972        0.47642       -0.46142
H         -2.14237        1.27271        0.42408
H         -1.84815        0.64737       -1.19697
H         -2.32337       -0.98719        1.20816
N          1.06298       -0.02397       -0.35326
C          1.25047        1.29018        0.23090
C          2.16004       -0.92498       -0.05603
H          0.18536       -0.42152       -0.01794
H          2.12325        1.77668       -0.22066
H          0.37744        1.91549        0.02108
H          1.40882        1.27334        1.32586
H          3.08154       -0.55323       -0.51965
H          2.35719       -1.04501        1.02602
H          1.95236       -1.91273       -0.47740
