19
1ma1eda_02.log	Energy: -179677.5375295
N         -1.79800       -0.25793        0.66655
H         -2.23222       -0.40786        1.57022
C         -2.78913        0.14955       -0.32470
H         -3.31517        1.08731       -0.09088
H         -2.29412        0.27669       -1.29272
H         -3.53785       -0.63899       -0.44573
H         -1.08796        0.46896        0.76893
H          2.61195        0.75630       -0.74148
H          2.37660        1.18766        0.96520
H          2.54921       -1.27605        0.52395
H          1.08470       -0.79635        1.39048
H          1.06135       -2.32113       -0.79519
H         -0.18460       -1.33383       -0.38013
H          0.83308        2.42422       -0.32589
H          0.28838        1.07767       -1.07394
C          1.89969        0.71830        0.09730
C          1.59723       -0.74412        0.41844
N          0.65474        1.43447       -0.19421
N          0.80038       -1.35467       -0.64648
