20
1ma1tma_02.log	Energy: -169604.1685632
N          0.97870       -0.01815       -0.09889
C          0.67138       -0.85006        1.05374
H         -0.11766       -0.37476        1.64402
H          0.30896       -1.82641        0.71769
H          1.55167       -1.01114        1.70423
C          1.96027       -0.64828       -0.96379
H          1.58697       -1.61946       -1.30195
H          2.13324       -0.02424       -1.84547
H          2.93139       -0.80744       -0.45727
C          1.40611        1.30825        0.31668
H          1.59354        1.92881       -0.56475
H          0.61296        1.77810        0.90547
H          2.33032        1.28224        0.92464
N         -2.02802        0.73916       -0.15640
H         -2.41850        1.42804       -0.78943
C         -2.84862       -0.46613       -0.13504
H         -2.96388       -0.96833       -1.10866
H         -2.40760       -1.18758        0.56017
H         -3.84828       -0.22774        0.24136
H         -1.08274        0.52011       -0.47254
