19
1ma1eda_07.log	Energy: -179676.3084919
N          2.21001       -0.52269        0.46979
H          2.28008       -0.32204        1.46176
C          2.24010        0.71642       -0.31263
H          3.17165        1.29060       -0.21355
H          2.09179        0.47425       -1.36838
H          1.40713        1.35716       -0.01108
H          2.99870       -1.11560        0.23413
H         -0.38653        0.53538        1.25826
H         -2.11030        0.81792        1.44341
H         -1.63872       -1.57238        1.11562
H         -2.58252       -0.95287       -0.25154
H          0.34130       -1.29908       -0.29815
H         -0.76917       -2.18285       -1.14838
H         -0.78869        1.11541       -1.13125
H         -2.21795        1.74459       -0.67036
C         -1.34321        0.52499        0.71887
C         -1.60067       -0.90569        0.23686
N         -1.28266        1.52610       -0.34155
N         -0.58079       -1.27553       -0.73955
