19
1ma1eda_14.log	Energy: -179675.4229123
N          1.83215        0.41543        0.60312
H          1.06857        0.81489        0.05617
C          2.82264       -0.20251       -0.27340
H          3.26020        0.47284       -1.02451
H          3.63807       -0.61567        0.32741
H          2.36115       -1.04051       -0.80562
H          2.25257        1.16386        1.14288
H         -2.46119       -0.97308       -0.75594
H         -2.28617       -1.37066        0.94317
H         -2.66656        1.01293        0.68776
H         -1.05838        0.71669        1.37281
H         -1.48153        1.27092       -1.47998
H         -0.94978        2.35449       -0.38607
H         -0.14335       -1.18793       -1.04196
H          0.13313       -1.39636        0.53861
C         -1.78970       -0.86552        0.10666
C         -1.66203        0.61997        0.46272
N         -0.55190       -1.56932       -0.19467
N         -0.97913        1.36332       -0.60139
