19
1ma1eda_13.log	Energy: -179675.4778872
N          1.81389       -0.70844       -0.29225
H          2.30386       -1.29492       -0.95869
C          2.74708        0.16271        0.41305
H          3.34415        0.82498       -0.23306
H          2.18866        0.79494        1.11136
H          3.43783       -0.44107        1.00901
H          1.12785       -0.15328       -0.80375
H         -2.86230       -0.09101       -0.16891
H         -2.31364       -0.62471        1.40849
H         -1.65420        1.67812        1.06395
H         -0.21860        0.64592        1.17865
H         -1.32207        1.55474       -1.38667
H         -0.00012        2.16919       -0.65813
H         -1.13508       -1.31477       -1.18077
H         -0.45524       -1.71388        0.23096
C         -1.96318       -0.34955        0.40693
C         -1.07835        0.89455        0.54529
N         -1.35141       -1.51647       -0.21001
N         -0.55882        1.32769       -0.75547
