19
1ma1eda_09.log	Energy: -179676.7223533
N         -1.95335        0.11557        0.69439
H         -2.61277        0.45952        1.38292
C         -2.59598       -0.08217       -0.60169
H         -3.04870        0.82416       -1.03286
H         -1.84952       -0.45883       -1.30735
H         -3.37756       -0.84327       -0.51562
H         -1.18645        0.78503        0.60933
H          2.01704       -0.59474        1.25262
H          2.61963       -1.30823       -0.24542
H          2.72509        1.01327       -0.57559
H          1.33246        0.44699       -1.52132
H          1.15900        1.75457        1.10012
H          0.69002        2.37827       -0.33022
H          0.68273       -2.48480        0.31025
H         -0.24042       -1.13609        0.44972
C          1.77502       -0.75884        0.18545
C          1.70688        0.59936       -0.50430
N          0.56507       -1.53821       -0.03216
N          0.78454        1.51037        0.18729
