19
1ma1eda_03.log	Energy: -179674.9430081
N         -2.69390       -0.71679       -0.25578
H         -2.71721       -0.99533       -1.23053
C         -2.93305        0.71870       -0.11255
H         -3.90247        1.06488       -0.49785
H         -2.86776        0.98723        0.94549
H         -2.14222        1.26578       -0.63310
H         -3.40667       -1.25480        0.22463
H          2.57963        0.69591        1.16082
H          2.56236        1.57296       -0.36128
H          0.28907        1.44297        0.51543
H          0.39458        0.47552       -0.96328
H          0.37815       -0.62187        1.74806
H         -0.69066       -0.90072        0.52272
H          2.55855       -1.34042       -0.18285
H          2.81536       -0.44957       -1.52240
C          2.25263        0.63523        0.11398
C          0.72450        0.52443        0.08291
N          2.96270       -0.46925       -0.51777
N          0.28618       -0.70149        0.74042
