17
1ma1dma_02.log	Energy: -144942.5462858
N         -1.91691       -0.38297        0.68014
H         -2.30839       -1.30351        0.84610
C         -2.38392        0.16299       -0.59511
H         -3.47417        0.27925       -0.67173
H         -1.91905        1.13908       -0.75655
H         -2.04389       -0.48628       -1.40539
H         -2.20150        0.20611        1.45492
N          1.02306       -0.02371       -0.30416
C          1.43200        1.27498        0.19348
C          2.03351       -1.04330       -0.10014
H          0.14967       -0.29693        0.14671
H          2.28567        1.64564       -0.38643
H          0.61377        1.99181        0.07264
H          1.73065        1.27125        1.25914
H          2.92673       -0.80541       -0.69023
H          2.35167       -1.15165        0.95412
H          1.65622       -2.01062       -0.44456
