19
1ma1eda_06.log	Energy: -179676.2501216
N         -1.82650       -0.23793        0.74755
H         -1.24218       -1.02977        0.48438
C         -2.63501        0.18279       -0.39555
H         -3.28554       -0.60093       -0.81051
H         -3.26492        1.02906       -0.10523
H         -1.96639        0.52975       -1.18923
H         -2.41769       -0.53683        1.51524
H          0.88630       -0.74815        1.36627
H          2.42845       -1.27055        0.70248
H          2.29231        1.18598        1.05856
H          2.58819        0.78908       -0.64491
H         -0.12393        1.30315        0.37920
H          0.78956        2.39965       -0.46487
H          0.36019       -0.69594       -1.21031
H          1.43609       -1.92927       -1.20912
C          1.51018       -0.72506        0.46271
C          1.84187        0.73707        0.15814
N          0.79832       -1.40341       -0.62364
N          0.63066        1.41362       -0.29874
