19
1ma1eda_10.log	Energy: -179676.3436350
N          1.93769        0.09724       -0.68261
H          1.20252       -0.60373       -0.78739
C          2.55818       -0.02204        0.63069
H          3.04138       -0.99174        0.82844
H          3.30985        0.76251        0.76019
H          1.79311        0.13349        1.39884
H          2.61686       -0.02127       -1.42506
H         -1.06477        0.56413        1.49571
H         -2.52507        1.18334        0.72163
H         -2.65963       -1.14320        0.49194
H         -2.18735       -0.53276       -1.10701
H         -0.37885       -1.77984        0.83633
H         -0.81102       -2.36502       -0.62055
H         -0.76199        2.50076       -0.05459
H          0.13204        1.21965       -0.55796
C         -1.56068        0.70512        0.51560
C         -1.84352       -0.67127       -0.07764
N         -0.82153        1.55271       -0.40759
N         -0.63487       -1.50669       -0.10871
