19
1ma1eda_12.log	Energy: -179676.6652204
N         -2.04645        0.41836        0.67351
H         -2.85055        0.96272        0.96499
C         -2.40834       -0.51797       -0.38550
H         -2.87506       -0.05786       -1.27102
H         -1.50336       -1.03298       -0.72345
H         -3.09737       -1.27489        0.00335
H         -1.33195        1.05790        0.32431
H          2.62527        0.83348       -0.14342
H          1.60622        1.51532        1.13411
H          1.92944       -0.86845        1.51674
H          0.22340       -0.53195        1.15405
H          2.15523       -1.71766       -0.70763
H          0.72731       -2.32950       -0.19999
H          0.90385        2.20486       -1.11930
H          0.51878        0.63889       -1.43641
C          1.59952        0.84826        0.26507
C          1.23031       -0.55801        0.72536
N          0.61045        1.33132       -0.69687
N          1.21313       -1.46877       -0.42319
