17
1ma1dma_04.log	Energy: -144942.8268377
N          1.83326       -0.57658       -0.52568
H          2.39567       -0.47438       -1.36286
C          2.23159        0.39516        0.48421
H          2.09507        1.45128        0.19834
H          1.65367        0.22292        1.39874
H          3.28535        0.25123        0.74239
H          0.85546       -0.43778       -0.78415
N         -1.24580       -0.09331       -0.52541
C         -1.41513        1.25796       -0.01285
C         -1.44359       -1.11465        0.49384
H         -1.88241       -0.25102       -1.29849
H         -0.63553        1.46052        0.72926
H         -1.29761        1.98033       -0.82488
H         -2.39271        1.42674        0.47040
H         -0.65958       -1.02127        1.25257
H         -2.42081       -1.04459        1.00086
H         -1.34604       -2.10553        0.04421
