32
1sa1eda1tma_25.log	Energy: -668370.4932603
S          2.00827        0.11923       -0.05017
O          1.52012        1.41752       -0.55736
O          1.48617       -0.17378        1.30199
O          1.89350       -0.99045       -1.00149
O          3.62479        0.27496        0.12391
H          3.78174        0.95115        0.79545
H          0.00943       -2.90367        0.26727
H         -1.57630       -3.51620        0.75100
H         -1.53709       -3.00134       -1.62292
H         -2.70616       -1.97661       -0.76735
H          0.02996       -1.07327       -1.42064
H         -1.28422       -0.75021       -2.33731
H         -1.29324       -2.00164        2.36279
H         -0.26742       -1.07450        1.51079
C         -1.03912       -2.61796        0.42860
C         -1.63595       -2.17653       -0.90282
N         -1.15867       -1.57342        1.45358
N         -0.98929       -0.94883       -1.38557
N         -1.68946        1.31085        0.03715
C         -3.11995        0.98157        0.22106
H         -3.53187        0.64809       -0.73312
H         -3.17899        0.16991        0.94805
H         -3.65802        1.86649        0.56963
C         -1.06865        1.74271        1.31392
H         -1.22677        0.95996        2.05335
H         -0.00161        1.88204        1.14832
H         -1.54642        2.67389        1.63156
C         -1.46745        2.31371       -1.03181
H         -0.39016        2.43195       -1.15701
H         -1.90945        1.94116       -1.95738
H         -1.94085        3.25701       -0.74874
H         -1.25297        0.40076       -0.33726
