23
1sa1a1eda_09.log	Energy: -594393.0107855
S         -1.84996       -0.18998       -0.00306
O         -1.16186       -1.04691        1.00464
O         -2.32690        1.07699        0.57019
O         -1.08719       -0.06577       -1.24879
O         -3.18086       -1.01945       -0.44072
H         -3.81548       -0.95422        0.28505
H          1.96050       -1.83733       -0.25653
H          1.21125       -0.58726       -1.26106
H          3.70581       -0.66492       -1.62440
H          3.21247        0.87862       -0.92153
H          4.49315       -1.31373        0.53747
H          4.93435        0.25776        0.46370
H          0.44735       -0.56652        1.03723
H          2.05268       -0.13910        1.50772
C          1.91490       -0.76090       -0.44474
C          3.30056       -0.19401       -0.71916
N          1.35466       -0.10948        0.76197
N          4.13645       -0.36601        0.47066
H          1.10655        0.89919        0.54017
N          0.33608        2.38361       -0.05439
H         -0.58723        2.33524        0.38364
H          0.15481        2.21905       -1.04202
H          0.69441        3.32659        0.05252
