27
1sa1ma1tma_11.log	Energy: -608972.8436896
S         -1.81977       -0.03963       -0.00543
O         -1.65146       -1.49023        0.20857
O         -1.40442        0.75438        1.17078
O         -1.27378        0.44780       -1.27842
O         -3.42576        0.21004       -0.17535
H         -3.85642       -0.11902        0.62439
N          1.00815        1.71314       -0.09397
H          0.45754        1.77696       -0.95008
C          1.97505        2.80429        0.03285
H          1.51112        3.79609       -0.01422
H          2.49828        2.71982        0.98951
H          2.71974        2.73753       -0.76558
H          0.29297        1.74095        0.63842
N          1.82958       -0.84830       -0.00453
C          1.39555       -1.41362        1.29706
H          1.69384       -0.72672        2.09087
H          0.30888       -1.51969        1.28566
H          1.87261       -2.38666        1.44425
C          1.30713       -1.63430       -1.15011
H          0.22869       -1.74886       -1.03425
H          1.52025       -1.09272       -2.07275
H          1.79784       -2.61168       -1.16516
C          3.29632       -0.69115       -0.07327
H          3.55936       -0.22451       -1.02411
H          3.62516       -0.05003        0.74657
H          3.78110       -1.66754        0.00498
H          1.44031        0.18906       -0.06588
