29
1sa1dma1eda_13.log	Energy: -643711.3841538
S         -1.93742       -0.31258        0.04413
O         -0.90459       -0.56929        1.06862
O         -3.24029       -0.90746        0.28347
O         -1.92680        1.10808       -0.37894
O         -1.35209       -1.06670       -1.31778
H         -0.43576        1.72010       -0.00638
H         -1.70598       -1.96583       -1.31866
H          3.02353       -1.86127       -1.40986
H          3.65344       -0.32874       -0.76391
H          3.43027       -2.03520        0.97888
H          2.38682       -0.65239        1.31801
H          1.50864       -3.13815        1.38182
H          0.52657       -1.94264        0.84499
H          1.77047        0.00109       -2.24478
H          0.79727       -0.85641       -1.26958
C          2.78745       -1.00156       -0.76906
C          2.52759       -1.51388        0.64343
N          1.62489       -0.25487       -1.27213
N          1.39933       -2.43624        0.66100
N          0.58916        1.92712        0.12496
C          0.90927        1.95971        1.56443
C          0.94782        3.14921       -0.61367
H          1.06410        1.08917       -0.34102
H          0.40745        2.81043        2.02960
H          0.54329        1.03199        2.00478
H          1.98967        2.05371        1.69583
H          0.40854        4.00302       -0.19988
H          2.02332        3.32241       -0.53601
H          0.67068        3.02006       -1.66055
