23
1sa1a1eda_69.log	Energy: -594386.5727065
S          1.56039       -0.21428       -0.08038
O          0.85653       -0.99654       -1.10795
O          0.92903       -0.23595        1.25171
O          2.98028       -0.95948        0.16862
O          1.87828        1.16588       -0.52350
H          3.36228       -1.16206       -0.69596
H          0.59182        2.23554        0.22900
H         -1.96018       -1.89778       -0.31625
H         -3.60228       -1.68742        0.27615
H         -3.33765       -0.42855       -1.74016
H         -3.59178        0.69239       -0.39619
H         -0.88418        0.03983       -1.36112
H         -1.76237        1.27353       -1.97761
H         -1.08947       -0.71074        1.44145
H         -2.57280       -0.07762        1.90506
C         -2.64031       -1.17497        0.14766
C         -2.87729       -0.01940       -0.83033
N         -2.09633       -0.84535        1.44867
N         -1.63350        0.70758       -1.14299
N         -0.32335        2.17596        0.71837
H         -0.67754        3.07781        1.01931
H         -0.13458        1.54554        1.50419
H         -0.98268        1.63559        0.01478
