26
1sa1ma1eda_04.log	Energy: -619050.9151252
S         -1.56201       -0.96604        0.11170
O         -2.53610       -1.97902        0.47982
O         -1.02598       -0.09993        1.16616
O         -0.48879       -1.45508       -0.80129
O         -2.40142        0.13598       -0.81707
H         -3.03811       -0.35782       -1.34916
H          2.63077        1.19748        0.84407
H          1.25579        0.18758        1.37105
H          3.41090       -1.07734        1.57796
H          2.32465       -1.81422        0.39553
H          4.72789       -0.26394       -0.21542
H          4.24170       -1.69822       -0.83032
H          0.82235        1.34088       -0.75069
H          2.13000        0.41250       -1.41116
C          2.05217        0.29262        0.63240
C          2.94943       -0.93743        0.59199
N          1.40658        0.45380       -0.69011
N          3.91452       -0.79807       -0.50149
H          0.72267       -0.33895       -0.83822
N         -0.45461        2.53930       -0.67738
H         -0.47454        3.27651       -1.37505
C         -0.54599        3.10427        0.67676
H         -1.40969        3.76574        0.81322
H         -0.63215        2.27730        1.38435
H          0.36297        3.67129        0.89968
H         -1.26377        1.94040       -0.84821
