24
1sa1ma1dma_04.log	Energy: -584317.7792256
S          1.64272       -0.26792       -0.10783
O          0.93903       -1.43401        0.49940
O          3.05825       -0.48257       -0.35166
O          0.83811        0.35413       -1.16452
O          1.57935        0.89910        1.08344
H          2.34636        0.77016        1.65553
N         -1.65676       -0.89994        0.06560
C         -2.56428       -1.60241        0.98711
C         -1.99812       -1.04112       -1.36346
H         -1.61969        0.13662        0.32130
H         -2.55509       -2.67205        0.76986
H         -2.22150       -1.44012        2.00971
H         -3.57843       -1.21333        0.87296
H         -2.01114       -2.09934       -1.63158
H         -2.98068       -0.60099       -1.54796
H         -1.22924       -0.52385       -1.93777
H         -0.66263       -1.22436        0.22157
N         -1.33540        1.79130        0.72836
H         -1.87744        2.21753        1.47349
C         -1.38718        2.61561       -0.48881
H         -1.10887        3.66141       -0.31415
H         -0.69295        2.18815       -1.21473
H         -2.39826        2.59174       -0.90629
H         -0.36932        1.73007        1.05323
