32
1sa1eda1tma_40.log	Energy: -668364.4323220
S          2.20602       -0.84726        0.08527
O          2.12367       -2.14825        0.73438
O          0.98819       -0.54219       -0.74674
O          2.57205        0.31334        0.89899
O          3.42226       -0.95553       -0.99983
H          3.46419       -1.87534       -1.29223
H         -4.31155       -1.80858        0.92318
H         -4.87188       -1.71233       -0.73743
H         -2.62497       -2.64233       -0.71500
H         -2.57445       -1.05213       -1.47896
H         -1.76267       -1.60796        1.27948
H         -0.80127       -1.15872        0.04504
H         -3.80516        0.54931        0.78621
H         -4.48665        0.62342       -0.70368
C         -4.15450       -1.28490       -0.02862
C         -2.73213       -1.56376       -0.52019
N         -4.49325        0.11847        0.17687
N         -1.74117       -1.05238        0.42830
N          0.07200        1.83980       -0.06679
C         -1.17561        2.03772       -0.83799
H         -0.94919        1.95613       -1.90201
H         -1.87440        1.25192       -0.54480
H         -1.58842        3.02545       -0.61781
C         -0.18460        1.82387        1.39569
H         -0.92728        1.04810        1.59092
H          0.75189        1.58143        1.89821
H         -0.55516        2.80501        1.70398
C          1.13150        2.80872       -0.43464
H          2.03785        2.53686        0.10692
H          1.31523        2.73306       -1.50710
H          0.80392        3.81923       -0.17844
H          0.44328        0.87368       -0.32931
