26
1sa1ma1eda_104.log	Energy: -619045.4245654
S         -2.00529       -0.14744       -0.09624
O         -2.71280        0.96812       -0.71510
O         -0.86313       -0.69089       -0.88596
O         -1.61792        0.05133        1.31298
O         -3.05911       -1.40214       -0.11400
H         -3.94492       -1.02057       -0.06346
H          2.93413       -1.33416        1.55568
H          1.75895       -2.51411        0.94442
H          3.46543       -2.30719       -0.73295
H          1.99635       -1.54629       -1.34891
H          4.38092       -0.14835       -0.39836
H          3.58953        0.01561       -1.81607
H          0.53424       -0.63934        1.76531
H          1.42547        0.48592        0.88959
C          2.18130       -1.51910        0.78292
C          2.79700       -1.44325       -0.60949
N          1.09751       -0.52844        0.92086
N          3.46010       -0.15681       -0.82554
H          0.38695       -0.63221        0.14167
N          1.66744        2.16343        0.56907
H          1.80542        2.84484        1.30771
C          0.52599        2.53753       -0.28238
H          0.63969        3.51974       -0.75545
H          0.40176        1.78499       -1.06508
H         -0.38929        2.53141        0.31268
H          2.52263        2.10900        0.02279
