21
1sa1a1dma_10.log	Energy: -559653.7223827
S          1.58793       -0.06054       -0.14912
O          2.98204       -0.13421       -0.55101
O          0.58054        0.16172       -1.19946
O          1.20101       -1.56806        0.39428
O          1.33203        0.83131        1.02232
H          2.01079       -1.96180        0.74364
H          0.02279        1.71255        0.72374
N         -2.13088       -0.20607       -0.14704
C         -3.39562       -0.33688       -0.86520
C         -2.08342       -0.99548        1.08572
H         -1.35272       -0.49061       -0.74643
H         -4.20771        0.07564       -0.25789
H         -3.34563        0.22199       -1.80298
H         -3.63824       -1.38364       -1.09548
H         -2.83541       -0.62091        1.78834
H         -2.27814       -2.06074        0.90408
H         -1.09240       -0.90116        1.53549
N         -0.88306        2.12413        0.34148
H         -1.28805        2.80492        0.97649
H         -1.53704        1.25416        0.15377
H         -0.65828        2.55980       -0.55000
