21
1sa1a1dma_04.log	Energy: -559660.8266044
S          1.37771       -0.12401       -0.05109
O          1.66395        1.07868       -0.84458
O          0.86287        0.11861        1.29969
O          0.54810       -1.11449       -0.79940
O          2.80865       -0.85681        0.19800
H          3.29481       -0.83838       -0.63698
N         -1.91545       -0.30884       -0.09022
C         -2.98973       -0.49475       -1.07966
C         -2.19706       -0.86486        1.24903
H         -1.01350       -0.73233       -0.44210
H         -3.90385       -0.01474       -0.72450
H         -2.68029       -0.04353       -2.02289
H         -3.16926       -1.56075       -1.22935
H         -3.07098       -0.36774        1.67524
H         -2.38530       -1.93640        1.16211
H         -1.31413       -0.69355        1.86621
H         -1.68070        0.72310        0.00443
N         -0.94140        2.31356        0.17654
H         -1.39969        3.21148        0.06393
H         -0.13912        2.27661       -0.45624
H         -0.53129        2.27702        1.10732
