23
1sa1a1eda_22.log	Energy: -594390.6402857
S         -0.98074       -0.06055        0.53120
O         -2.18132       -0.17118        1.35451
O          0.18262        0.61232        1.12812
O         -0.57672       -1.38817       -0.06128
O         -1.34417        0.86007       -0.73916
H         -2.29980        0.67955       -0.99323
H          2.02427       -0.89452        1.05083
H          3.34553       -1.76697        0.23176
H          3.85454        0.64037        1.07778
H          4.29668        0.31344       -0.60586
H          1.76849        1.60863        0.17642
H          3.02901        2.29656       -0.66716
H          0.76353       -1.28237       -0.68374
H          1.73198       -0.07480       -1.41007
C          2.67695       -0.90675        0.17715
C          3.44939        0.41687        0.08216
N          1.78235       -1.03229       -1.01023
N          2.55137        1.43073       -0.45453
H          2.12366       -1.68302       -1.71119
N         -3.97272        0.23336       -1.00215
H         -3.96253       -0.05259       -0.02349
H         -4.24463       -0.56507       -1.56484
H         -4.66724        0.96213       -1.12151
