24
1sa1ma1dma_11.log	Energy: -584313.7749264
S         -0.30678       -0.82784       -0.05132
O         -1.39471       -1.55209        0.58301
O          0.83198       -1.54675       -0.59391
O         -0.90140        0.04146       -1.22961
O          0.20467        0.24209        0.97362
H         -1.88557        0.28038       -1.00073
H          1.19823        0.57433        0.72066
N          2.57511        0.96746        0.36920
C          2.62911        1.22856       -1.07589
C          3.46446       -0.12671        0.78207
H          2.82364        1.81401        0.87396
H          2.29241        0.33116       -1.59934
H          1.94758        2.04539       -1.32217
H          3.64294        1.48435       -1.40923
H          3.12437       -1.04337        0.29553
H          4.50990        0.06758        0.51072
H          3.39000       -0.26220        1.86311
N         -3.34681        0.48348       -0.42140
H         -4.07854        0.73749       -1.07697
C         -3.30070        1.41183        0.71706
H         -4.24383        1.45990        1.27279
H         -2.50665        1.09014        1.39407
H         -3.05373        2.41181        0.35330
H         -3.53196       -0.46191       -0.09345
