23
1sa1a1eda_53.log	Energy: -594387.0555656
S          1.85037       -0.22539        0.00889
O          2.49486        0.98403        0.51481
O          1.19054       -1.04247        1.06131
O          0.96525       -0.03572       -1.16243
O          3.04407       -1.15709       -0.59424
H          3.80910       -1.05543       -0.01271
H         -2.41931       -0.14932        1.73326
H         -1.58860        1.11964        0.76777
H         -4.07097        1.09023        0.33773
H         -3.12044        0.75395       -1.10817
H         -4.60611       -1.23039        0.45085
H         -4.62797       -0.96938       -1.16238
H         -0.51348       -1.14958        0.72492
H         -1.89586       -1.63477       -0.18583
C         -2.16446        0.18831        0.72484
C         -3.41218        0.34991       -0.13321
N         -1.30409       -0.85182        0.10814
N         -4.03403       -0.95964       -0.34217
H         -0.76703       -0.48012       -0.69954
N         -0.14954        2.62803       -0.10269
H          0.14612        2.22479       -0.98874
H          0.66568        2.53056        0.50044
H         -0.30133        3.62085       -0.24808
