29
1sa1dma1eda_72.log	Energy: -643707.8410973
S          0.53019       -1.04776       -0.16495
O          1.83022       -1.45156       -0.68909
O         -0.28463       -0.27240       -1.17347
O         -0.30103       -2.09627        0.45401
O          0.79313       -0.00742        1.03084
H          1.61853        0.55891        0.81623
H         -3.45218       -0.29532        1.62065
H         -1.76180        0.20542        1.36178
H         -3.30552        2.16933        1.15785
H         -2.48207        1.82021       -0.36556
H         -5.28308        1.22184        0.23948
H         -4.64969        1.95605       -1.07666
H         -2.34719       -1.77014        0.08871
H         -3.48046       -0.82811       -0.78370
C         -2.74433        0.11353        0.89358
C         -3.23190        1.44413        0.33746
N         -2.61799       -0.83700       -0.23612
N         -4.48617        1.23173       -0.38812
H         -1.74791       -0.54576       -0.81795
N          2.98546        1.36786        0.41811
C          2.89993        1.70296       -1.00616
C          4.09954        0.46293        0.71491
H          3.08784        2.22039        0.96040
H          2.70633        0.78418       -1.56461
H          2.06196        2.38456       -1.17038
H          3.82306        2.16641       -1.38397
H          3.90891       -0.48943        0.21436
H          5.06592        0.86492        0.37683
H          4.14416        0.28251        1.79164
