24
1sa1ma1dma_08.log	Energy: -584317.2545693
S         -1.75034        0.01294       -0.11994
O         -1.22392        1.32301        0.36087
O         -3.15735        0.03014       -0.48003
O         -0.80765       -0.63111       -1.04863
O         -1.63592       -0.97837        1.20217
H         -2.45738       -0.88504        1.70129
N          1.43352        1.13274        0.10335
C          2.21941        1.97103        1.02223
C          1.72630        1.34732       -1.32792
H          1.57510        0.09810        0.32279
H          2.01487        3.02484        0.82429
H          1.93427        1.73567        2.04816
H          3.28435        1.77303        0.88265
H          1.52188        2.38745       -1.58826
H          2.77561        1.11612       -1.52517
H          1.07151        0.68998       -1.90139
H          0.39655        1.29068        0.25301
N          1.53097       -1.63024        0.44454
H          1.35488       -1.99949        1.37352
C          2.57812       -2.39569       -0.23566
H          2.35226       -3.46489       -0.32808
H          2.71525       -1.99319       -1.24304
H          3.52529       -2.28818        0.30025
H          0.64524       -1.69479       -0.06322
