32
1sa1eda1tma_32.log	Energy: -668367.2554683
S          2.10132       -0.66218       -0.03623
O          2.01415        0.17853       -1.23866
O          3.43798       -0.95512        0.45696
O          1.13069       -0.19241        1.00097
O          1.45169       -2.11752       -0.44162
H          2.18435       -2.68420       -0.71539
H         -3.95000       -2.17215        0.16874
H         -3.32988       -2.01536       -1.47864
H         -1.57838       -2.79576        0.06296
H         -1.15368       -1.25250       -0.65699
H         -2.10672       -1.63842        2.07636
H         -0.69766       -0.98719        1.55029
H         -4.58060       -0.06616       -0.93092
H         -3.65732        0.21075        0.39298
C         -3.27197       -1.58430       -0.47373
C         -1.84597       -1.72957        0.04268
N         -3.64719       -0.17097       -0.54827
N         -1.69182       -1.07138        1.34268
N         -0.17477        1.93020        0.06317
C         -0.83807        1.67589       -1.24251
H         -0.09901        1.22610       -1.90646
H         -1.68822        1.00426       -1.09193
H         -1.19229        2.62895       -1.64501
C         -1.14952        2.28241        1.12170
H         -1.79624        1.41630        1.27873
H         -0.60550        2.49707        2.04258
H         -1.72210        3.15928        0.80998
C          0.91402        2.92840       -0.06525
H          1.42662        3.01243        0.89367
H          1.61468        2.56784       -0.81864
H          0.48527        3.89174       -0.35166
H          0.29492        1.03205        0.37740
