26
1sa1ma1eda_32.log	Energy: -619048.5108973
S         -1.26238       -0.99501        0.01145
O         -2.22791       -0.17174       -0.72961
O         -0.17329       -1.52761       -0.83371
O         -0.74099       -0.36376        1.24540
O         -2.09258       -2.27104        0.58269
H         -2.66339       -2.58842       -0.12987
H          3.21117        1.46406       -0.61216
H          2.73245        1.68375        1.09297
H          4.28335       -0.29201        0.70557
H          2.75353       -0.73723        1.46922
H          3.67221       -1.95683       -0.70793
H          2.05332       -1.72433       -0.53595
H          0.71068        1.75796       -0.45747
H          1.16554        0.21819       -0.93457
C          2.66799        1.02216        0.22588
C          3.20668       -0.37594        0.53425
N          1.24982        0.89503       -0.16449
N          2.95406       -1.25315       -0.60209
H          0.66570        0.47571        0.59353
N         -0.85913        2.58775       -0.76066
H         -0.93804        3.32430       -1.45427
C         -1.38062        3.03972        0.53802
H         -2.40735        3.41977        0.48416
H         -1.37008        2.19289        1.22919
H         -0.73774        3.82908        0.93880
H         -1.43271        1.80345       -1.08084
