23
1sa1a1eda_41.log	Energy: -594388.6892709
S         -1.80416       -0.08816       -0.14286
O         -3.20580        0.18904       -0.39416
O         -1.48902       -1.53494        0.06156
O         -0.79738        0.54239       -1.00901
O         -1.46135        0.61148        1.31896
H         -2.25016        0.52995        1.87048
H          1.03815       -0.19581        1.10508
H          1.73084       -1.75931        1.57716
H          3.46377        0.08516        1.33689
H          3.78473       -1.29022        0.27380
H          2.51246        1.23238       -0.53946
H          3.89737        0.54514       -1.15031
H          0.03977       -1.70842       -0.28711
H          1.25049       -0.90574       -1.18325
C          1.70681       -1.00117        0.79279
C          3.09344       -0.45788        0.45549
N          1.09458       -1.58955       -0.42748
N          2.98772        0.34610       -0.75298
H          1.53382       -2.46862       -0.69258
N          1.10913        2.57605        0.08518
H          1.19032        3.48740       -0.35410
H          0.83048        2.73623        1.04823
H          0.33145        2.08488       -0.36075
