32
1sa1eda1tma_16.log	Energy: -668370.1951870
S         -0.08206       -1.12240       -0.19962
O         -1.32092       -1.88342        0.01060
O          0.87759       -1.64996       -1.16322
O         -0.42354        0.33030       -0.49960
O          0.62202       -1.08626        1.22989
H         -1.81012        0.56341       -0.19004
H          1.60967       -0.83580        1.13515
H          4.68012       -0.07003       -0.48259
H          3.19394       -0.89074       -1.03208
H          3.18562        1.44035       -1.77394
H          1.88051        1.14369       -0.62219
H          4.37209        2.57958       -0.05375
H          2.83143        3.05598        0.21344
H          3.73578       -1.28027        1.34306
H          3.44440        0.31826        1.61710
C          3.58709       -0.12426       -0.36035
C          2.96759        1.21998       -0.71917
N          3.21291       -0.47314        1.01848
N          3.44760        2.25230        0.20672
N         -2.87838        0.74473        0.04659
C         -3.07839        0.30384        1.44638
H         -2.79958       -0.74857        1.50893
H         -2.42070        0.88652        2.09274
H         -4.12270        0.45655        1.73364
C         -3.11786        2.19070       -0.12225
H         -2.45894        2.74090        0.55072
H         -2.89024        2.46800       -1.15240
H         -4.16186        2.42573        0.10369
C         -3.67613       -0.06743       -0.89986
H         -3.43895        0.24766       -1.91701
H         -3.38549       -1.11029       -0.77229
H         -4.74190        0.07809       -0.70069
