32
1sa1eda1tma_12.log	Energy: -668370.5776352
S          1.78429       -1.22723       -0.09357
O          2.53759       -2.43458       -0.39624
O          0.56373       -1.36508        0.71344
O          2.77348       -0.33497        0.89105
O          1.54867       -0.33284       -1.26269
H          3.66676       -0.67995        0.76819
H          0.21181        0.57708       -0.95035
H         -0.90128        2.32023        1.17668
H          0.24226        0.96365        1.35756
H          1.46674        3.14897        1.34618
H          1.90189        2.13881       -0.03385
H          0.22339        4.53237       -0.10899
H          1.42420        4.07820       -1.12112
H         -1.42358        0.60736       -0.41345
H         -0.70874        1.96493       -1.22134
C         -0.06717        1.78587        0.71008
C          1.09125        2.72704        0.40555
N         -0.55016        1.19882       -0.56258
N          0.65153        3.73391       -0.56458
N         -2.71330       -0.48816       -0.02910
C         -4.03880        0.01323       -0.37272
H         -4.23437        0.94724        0.16295
H         -4.09438        0.21085       -1.44724
H         -4.83139       -0.70811       -0.11277
C         -2.39139       -1.70295       -0.78255
H         -2.42784       -1.49004       -1.85511
H         -1.38276       -2.02940       -0.51901
H         -3.10474       -2.51402       -0.56326
C         -2.59377       -0.73025        1.40985
H         -1.58051       -1.07319        1.63077
H         -2.78591        0.19992        1.95436
H         -3.31503       -1.48917        1.75488
