26
1sa1ma1eda_54.log	Energy: -619047.8300050
S          0.86677       -0.74879        0.10188
O          0.10248        0.49970       -0.28337
O          1.53238       -0.59403        1.39588
O         -0.00031       -1.93111       -0.05368
O          2.00080       -0.91693       -1.00488
H          2.79453       -0.34431       -0.72995
H         -3.69414       -1.20180        0.53778
H         -2.16753       -0.69718        1.29682
H         -3.95802        1.02256        1.66664
H         -2.62181        1.66005        0.70370
H         -5.25908        0.90711       -0.31602
H         -4.39561        2.26663       -0.59647
H         -1.83563       -1.46285       -0.95803
H         -2.82121       -0.17873       -1.51627
C         -2.89714       -0.45267        0.52315
C         -3.45698        0.95299        0.69274
N         -2.20096       -0.52210       -0.78109
N         -4.32018        1.26787       -0.44743
H         -1.28238        0.05782       -0.70849
N          3.86927        0.67410        0.04368
H          3.65433        0.34783        0.98390
C          3.42765        2.06248       -0.12658
H          3.91699        2.76544        0.55909
H          3.62518        2.37869       -1.15394
H          2.34790        2.10464        0.03596
H          4.86717        0.57785       -0.10824
