29
1sa1dma1eda_98.log	Energy: -643705.5362174
S         -1.94529       -0.30278       -0.22129
O         -3.37802       -0.41079       -0.13967
O         -1.19899       -1.17544       -1.12118
O         -1.58534        1.19215       -0.52673
O         -1.34453       -0.51235        1.23883
H         -0.56673        1.38766       -0.32469
H         -0.39900       -0.88374        1.19359
H          2.52273       -2.91229        0.59477
H          0.84466       -3.05999        0.03705
H          2.32694       -2.21381       -1.72694
H          1.02280       -1.08339       -1.33007
H          3.78437       -0.81919       -0.33184
H          3.09028        0.09834       -1.47669
H          1.07057       -2.02085        2.23858
H          1.82687       -0.74757        1.54858
C          1.63136       -2.34393        0.28731
C          1.94921       -1.52693       -0.95714
N          1.14581       -1.48416        1.37881
N          2.89162       -0.44239       -0.64036
N          0.84208        1.81192        0.07204
C          0.75229        2.27072        1.45983
C          1.28511        2.85989       -0.84835
H          1.50466        1.03307        0.01605
H          0.01300        3.07356        1.52562
H          0.40166        1.44859        2.08788
H          1.71296        2.64460        1.84032
H          0.53922        3.65910       -0.87363
H          2.25212        3.29204       -0.55605
H          1.36816        2.44363       -1.85522
