23
1sa1a1eda_64.log	Energy: -594384.2360345
S          2.38665       -0.09041       -0.09203
O          3.82849        0.04178       -0.20522
O          1.64276        1.20538       -0.14432
O          1.71987       -1.11308       -0.91510
O          2.10737       -0.64932        1.43866
H          2.80632       -0.29283        2.00183
H         -1.87410       -1.16022        0.07860
H         -0.50211       -0.51705        1.01542
H         -2.70940        0.49665        1.73093
H         -1.59004        1.71093        1.09971
H         -3.89596        0.57002       -0.29406
H         -3.48921        2.16154       -0.11518
H         -0.16535       -0.54473       -1.42649
H         -1.38601        0.66940       -1.50833
C         -1.29511       -0.26231        0.30978
C         -2.20497        0.84857        0.82103
N         -0.66112        0.21359       -0.94394
N         -3.11603        1.23066       -0.25561
H          0.13939        0.86639       -0.69757
N         -5.17248       -1.11798       -0.02747
H         -4.86465       -1.82791        0.62940
H         -5.31737       -1.57666       -0.92129
H         -6.07800       -0.78846        0.29157
