29
1sa1dma1eda_42.log	Energy: -643707.2652884
S          0.37386       -0.43020        0.00075
O         -0.54381        0.68555       -0.43833
O          1.01446       -0.14373        1.28927
O         -0.34530       -1.71737       -0.08101
O          1.52319       -0.49337       -1.09339
H          2.39404       -0.11197       -0.69269
H         -4.09767       -1.33043        0.68311
H         -2.56491       -0.69525        1.32603
H         -4.43809        0.91931        1.74512
H         -3.21299        1.59883        0.66890
H         -5.85973        0.64121       -0.13028
H         -5.09800        2.02883       -0.53915
H         -2.29750       -1.51797       -0.91050
H         -3.42676       -0.35619       -1.45958
C         -3.35505       -0.53225        0.59099
C         -3.99755        0.83970        0.74314
N         -2.73553       -0.60665       -0.75099
N         -4.95475        1.04514       -0.34621
H         -1.87316        0.06253       -0.75995
N          3.64022        0.43393        0.15015
C          4.16098        1.73118       -0.26431
C          4.67108       -0.58417        0.32221
H          3.09962        0.52503        1.00961
H          4.62046        1.63737       -1.25311
H          3.33792        2.44591       -0.33532
H          4.91652        2.12601        0.43147
H          5.15121       -0.77992       -0.64149
H          5.44704       -0.28303        1.04150
H          4.20559       -1.50935        0.66906
