27
1sa1ma1tma_09.log	Energy: -608973.4167312
S         -1.77135        0.31719        0.08274
O         -1.69570       -0.91531        0.86999
O         -2.29800        1.51422        0.72209
O         -0.47126        0.56780       -0.63221
O         -2.82400       -0.05981       -1.11223
H         -3.21627        0.76811       -1.41858
N          1.93255        1.88442        0.56983
H          0.95273        1.72178        0.33759
C          2.54766        2.69146       -0.48419
H          2.08537        3.67798       -0.62686
H          3.61049        2.83941       -0.26899
H          2.47244        2.15497       -1.43527
H          1.94807        2.39130        1.44886
N          1.22863       -1.37945       -0.04915
C          2.50516       -1.09798       -0.74476
H          2.31006       -1.00695       -1.81423
H          2.89274       -0.15574       -0.35257
H          3.20578       -1.91649       -0.56117
C          1.40116       -1.39589        1.42535
H          1.84809       -0.44392        1.71540
H          0.41518       -1.50368        1.87811
H          2.05426       -2.22868        1.69880
C          0.57131       -2.61295       -0.54361
H         -0.39515       -2.70244       -0.04693
H          0.41778       -2.51790       -1.61925
H          1.20918       -3.47357       -0.32771
H          0.56260       -0.57706       -0.27363
