26
1sa1ma1eda_72.log	Energy: -619048.5500263
S         -0.49961       -0.62399       -0.16026
O         -0.39719       -0.36308        1.28946
O         -0.56679        0.61932       -0.95852
O          0.59748       -1.54139       -0.60699
O         -1.82522       -1.44270       -0.44908
H         -2.59924       -0.77848       -0.47119
H          4.27330        0.39248        0.77552
H          4.00640       -0.84804       -0.48099
H          3.60564        1.52918       -1.30825
H          2.19801        0.47270       -1.47965
H          2.35690        2.80200        0.12642
H          1.04848        1.83094       -0.19482
H          2.85837       -1.31993        1.68504
H          1.93920        0.05372        1.41460
C          3.53037       -0.07045        0.12042
C          2.83622        0.98334       -0.75186
N          2.48919       -0.69929        0.97008
N          2.02463        1.84832        0.09526
H          1.76323       -1.21364        0.35446
N         -3.57514        0.55641       -0.45640
H         -2.96871        1.16275       -1.00439
C         -3.68740        1.05193        0.92116
H         -4.10812        2.06268        0.98935
H         -4.31872        0.37042        1.49627
H         -2.69337        1.04660        1.37470
H         -4.47985        0.51616       -0.91283
