26
1sa1ma1eda_75.log	Energy: -619046.0425656
S         -1.81817       -0.23882       -0.09443
O         -2.49773       -0.73757       -1.28006
O         -1.35899        1.15299       -0.10036
O         -2.93288       -0.25816        1.10586
O         -0.73377       -1.15415        0.39371
H         -3.55651       -0.96659        0.90023
H          0.60127       -0.35370        0.77376
H          2.42238       -2.39905        1.06354
H          3.63712       -2.21557       -0.20295
H          3.58365       -0.10436        0.87379
H          2.68450        0.10913       -0.64523
H          1.60024       -0.08500        2.07669
H          1.37954        1.16612        0.93543
H          1.81462       -3.19785       -1.26001
H          0.73573       -2.09347       -0.69553
C          2.63270       -1.90168        0.09907
C          2.68449       -0.39423        0.32371
N          1.70731       -2.23352       -0.97028
N          1.50725        0.11049        1.08186
N          0.97558        2.72495        0.38044
H         -0.03372        2.60696        0.47465
C          1.29744        2.81108       -1.05128
H          0.85074        3.68253       -1.54269
H          2.38216        2.85152       -1.18634
H          0.91151        1.91609       -1.54483
H          1.24574        3.57506        0.86404
