26
1sa1ma1eda_45.log	Energy: -619048.6292186
S         -1.13665       -1.26849        0.13029
O         -0.03519       -1.57368       -0.80307
O         -1.94965       -2.39256        0.55657
O         -0.69950       -0.32720        1.19208
O         -2.15744       -0.28417       -0.74557
H         -2.73835       -0.85885       -1.26059
H          3.15039        1.68220       -0.45225
H          2.53286        1.74213        1.22133
H          4.19125       -0.13928        0.79349
H          2.63106       -0.69527        1.40798
H          3.76836       -1.66639       -0.81829
H          2.13093       -1.59355       -0.66545
H          0.65085        1.87124       -0.47855
H          1.18884        0.37658       -1.01666
C          2.56210        1.15365        0.30127
C          3.13304       -0.24615        0.53954
N          1.18334        1.00869       -0.20745
N          2.98692       -1.04144       -0.67415
H          0.55480        0.52769        0.48655
N         -1.02079        2.62747       -0.75876
H         -1.17113        3.38576       -1.41608
C         -1.58576        2.95940        0.55798
H         -2.64878        3.22567        0.52051
H         -1.47918        2.08888        1.21014
H         -1.03361        3.79669        0.99413
H         -1.51026        1.80866       -1.12109
