29
1sa1dma1eda_41.log	Energy: -643708.4749258
S          0.35047       -0.44424       -0.30689
O          1.42559       -0.73603       -1.26278
O         -0.67575       -1.47008       -0.13479
O          0.94257       -0.03248        1.03117
O         -0.34822        0.87057       -0.86780
H          2.32230        0.23182        0.88408
H         -1.16134        1.10961       -0.28544
H         -4.59603        1.37957        0.53068
H         -3.76261        1.73350       -1.00245
H         -4.71248       -0.59202       -0.87594
H         -2.97065       -0.55738       -1.18404
H         -4.18336       -1.89520        0.87761
H         -2.57703       -1.56248        0.73613
H         -2.46275        2.39596        0.96312
H         -2.41870        0.82403        1.43201
C         -3.71980        1.13522       -0.08590
C         -3.74058       -0.35441       -0.43002
N         -2.46668        1.44068        0.61993
N         -3.50639       -1.15159        0.77446
N          3.41735        0.41922        0.71744
C          3.54898        1.40874       -0.37670
C          4.06766       -0.87804        0.42492
H          3.79126        0.80709        1.58157
H          3.06375        0.98567       -1.25716
H          3.02936        2.32248       -0.08679
H          4.60376        1.61640       -0.57103
H          3.57675       -1.29636       -0.45453
H          5.13554       -0.73174        0.24665
H          3.91366       -1.54613        1.27284
