30
1sa1dma1tma_11.log	Energy: -633633.3163628
S          1.84731       -0.55588       -0.17156
O          3.00429       -1.06498       -0.88833
O          2.09308        0.50386        0.81621
O          0.66456       -0.22104       -1.02400
O          1.25241       -1.83685        0.68051
H          1.99907       -2.41383        0.88613
N         -2.05552       -1.16768       -0.05805
C         -3.00216       -1.61621       -1.06794
C         -2.10971       -1.97795        1.15068
H         -1.11264       -1.20898       -0.44135
H         -4.02710       -1.45295       -0.71453
H         -2.86336       -1.04052       -1.98804
H         -2.89942       -2.68580       -1.31683
H         -3.07359       -1.82997        1.65215
H         -1.99128       -3.05659        0.95540
H         -1.31023       -1.67522        1.83171
N         -0.58574        1.87756        0.01791
C          0.38623        2.98304       -0.16034
H          1.31023        2.70269        0.34611
H          0.58020        3.10954       -1.22604
H         -0.03295        3.90143        0.25786
C         -1.84545        2.09762       -0.72911
H         -1.61058        2.23360       -1.78561
H         -2.46448        1.20879       -0.59296
H         -2.34419        2.98859       -0.33965
C         -0.84582        1.59802        1.45283
H         -1.54528        0.76301        1.50264
H          0.10171        1.32727        1.91925
H         -1.27297        2.49058        1.91718
H         -0.12452        1.00827       -0.38937
