29
1sa1dma1eda_71.log	Energy: -643706.5720096
S         -2.10470       -0.30990       -0.15725
O         -1.67381       -0.38704        1.25966
O         -2.21085        1.07109       -0.64810
O         -1.33960       -1.22588       -1.02354
O         -3.61191       -0.92443       -0.21653
H         -4.21421       -0.24318        0.11021
H          2.58293       -1.23216        1.74380
H          1.82514       -2.72142        1.15675
H          3.92523       -2.43939       -0.02057
H          2.60702       -2.18372       -1.16289
H          4.27032       -0.07737       -0.00002
H          3.91273       -0.35490       -1.57277
H          0.20250       -0.90292        1.25329
H          1.08017        0.09460        0.24443
C          2.12502       -1.70932        0.87223
C          3.10902       -1.75319       -0.28989
N          0.92120       -0.94143        0.51424
N          3.54659       -0.40548       -0.63016
H          0.38221       -1.33836       -0.27616
N          0.71247        1.74410       -0.03235
C          1.65927        2.46918       -0.87090
C          0.52812        2.35194        1.28432
H         -0.20205        1.71022       -0.48866
H          2.65391        2.42354       -0.41699
H          1.71773        1.99028       -1.85075
H          1.38261        3.52567       -1.00568
H          1.45938        2.27333        1.85783
H          0.25431        3.41527        1.22354
H         -0.26581        1.81701        1.81211
