18
1sa1a1ma_11.log	Energy: -534996.9789763
S         -1.26077       -0.02947        0.06765
O         -0.38328       -0.95327        0.85049
O         -2.09899        0.82655        0.89533
O         -0.49245        0.62379       -1.00681
O         -2.28088       -1.00677       -0.75464
H         -3.04042       -1.17322       -0.18127
N          1.99003       -0.55943       -0.26533
H          1.09113       -0.81528        0.24791
H          1.77783       -0.70053       -1.25217
C          3.15954       -1.33097        0.18976
H          4.04983       -1.02382       -0.36039
H          3.30823       -1.14296        1.25292
H          2.98041       -2.39534        0.03703
H          2.09496        0.48570       -0.13218
N          1.76299        2.22635        0.01361
H          2.27373        2.94504       -0.48836
H          1.61282        2.56348        0.95979
H          0.84039        2.12338       -0.41720
