26
1sa1ma1eda_03.log	Energy: -619050.6595770
S         -1.81884       -0.34142       -0.09784
O         -3.25070       -0.37625       -0.34396
O         -1.28270        0.93343        0.41930
O         -1.54495       -1.43057        1.11795
O         -0.95725       -0.89441       -1.17328
H         -2.32193       -1.41634        1.69112
H          0.56312       -0.26200       -1.09382
H          2.65874        0.17841        0.95305
H          0.90547       -0.03361        1.20539
H          2.11645       -2.19206        1.58868
H          1.00246       -2.28873        0.22354
H          3.91939       -2.15125        0.06157
H          2.88102       -3.10798       -0.76285
H          1.38491        1.19610       -0.83251
H          2.22715       -0.21667       -1.40386
C          1.75788       -0.32545        0.58891
C          1.93843       -1.83776        0.56563
N          1.49105        0.14218       -0.79242
N          3.00591       -2.17983       -0.37791
N          0.70806        2.80950       -0.57791
H          0.66360        3.47778       -1.34010
C          1.17867        3.45509        0.65135
H          0.57211        4.31692        0.95500
H          1.14925        2.72412        1.46347
H          2.21351        3.78584        0.52488
H         -0.23390        2.44043       -0.42592
