26
1sa1ma1eda_126.log	Energy: -619044.5190002
S          1.69092       -0.20973       -0.02051
O          1.57520        0.65095       -1.20369
O          0.88999        0.18535        1.14054
O          1.50964       -1.65824       -0.34217
O          3.22877       -0.06503        0.48971
H          3.79546       -0.03888       -0.29256
H         -1.11828       -0.85513       -1.26208
H         -1.90436       -2.44424       -1.32235
H         -3.53286       -0.49114       -1.19681
H         -3.73511       -1.62803        0.14316
H         -2.25176        0.91146        0.26602
H         -3.56478        0.45670        1.18617
H          0.05446       -2.03659        0.25487
H         -1.04617       -1.12649        1.15318
C         -1.74783       -1.55593       -0.70844
C         -3.05368       -0.88433       -0.28843
N         -0.97314       -1.93057        0.50429
N         -2.73518        0.11865        0.71469
H         -1.34076       -2.76031        0.96400
N         -1.07468        2.19338       -0.71794
H         -0.23370        1.72958       -1.06325
C         -0.70640        3.03541        0.42645
H          0.01510        3.82582        0.18065
H         -1.60342        3.50531        0.84327
H         -0.26132        2.39555        1.19162
H         -1.42769        2.76671       -1.47750
