26
1sa1ma1eda_14.log	Energy: -619050.6163039
S          1.87216       -0.11463        0.16554
O          0.88814        0.38098        1.14199
O          3.23116       -0.32745        0.63013
O          1.31870       -1.22687       -0.65576
O          1.95097        1.15888       -0.89515
H          2.84114        1.15846       -1.26983
H         -3.16104       -1.00431       -0.93983
H         -2.19041       -2.37079       -1.55094
H         -2.64021       -2.61966        0.83589
H         -0.90596       -2.44889        0.53993
H         -2.14406       -1.04155        2.36672
H         -0.93739       -0.36367        1.49976
H         -1.24590       -0.42784       -2.42306
H         -1.25654        0.45430       -0.98000
C         -2.18474       -1.49382       -0.89723
C         -1.86392       -1.90957        0.53427
N         -1.17038       -0.53749       -1.41442
N         -1.87559       -0.75994        1.43165
H         -0.18920       -0.86663       -1.19194
N         -1.15508        1.98250       -0.31182
H         -0.44078        1.75532        0.38328
C         -2.37528        2.48060        0.33177
H         -2.20911        3.37984        0.93705
H         -3.12431        2.71302       -0.43078
H         -2.76881        1.68715        0.97163
H         -0.74286        2.68639       -0.91675
