24
1sa1ma1dma_14.log	Energy: -584315.2411487
S         -0.32225       -0.46610       -0.09610
O          0.61620       -0.72535       -1.21885
O         -1.39651       -1.43938        0.07300
O          0.44757       -0.20983        1.16681
O         -0.99765        0.93331       -0.48138
H          2.00224        0.07418        0.76316
H         -1.90121        0.98671       -0.01629
N          2.77126        0.16389        0.03443
C          3.95889       -0.63261        0.38032
C          3.01801        1.59070       -0.24490
H          2.22638       -0.25826       -0.75442
H          4.41811       -0.22627        1.28316
H          3.64777       -1.66187        0.55969
H          4.67655       -0.60270       -0.44164
H          3.45495        2.06249        0.63682
H          3.69749        1.68792       -1.09351
H          2.06148        2.05964       -0.47866
N         -3.38183        0.74188        0.69959
H         -3.13658        0.01764        1.36991
C         -4.27464        0.18720       -0.32555
H         -5.22597       -0.18087        0.07772
H         -4.48299        0.95484       -1.07480
H         -3.75452       -0.63917       -0.81404
H         -3.82413        1.50113        1.20643
