32
1sa1eda1tma_11.log	Energy: -668374.3879794
S         -0.04911       -1.70911        0.08899
O         -0.21956       -0.50303        1.00056
O          0.72500       -2.75669        0.73602
O         -1.32960       -2.06196       -0.52826
O          0.82382       -1.13714       -1.14384
H          1.71692       -0.86620       -0.77393
H          3.92634        1.62896        0.72327
H          4.09145        1.14125       -0.96976
H          2.49750        2.98592       -0.77455
H          1.70368        1.52959       -1.37507
H          0.79919        1.16987        0.80760
H          1.52888        2.53222        1.37787
H          3.84315       -0.84893        0.18669
H          2.59871       -0.32242        1.09497
C          3.40251        1.14977       -0.11847
C          2.16992        1.97912       -0.49118
N          3.03260       -0.23956        0.17813
N          1.14766        2.09376        0.54460
N         -2.18885        0.91785        0.03880
C         -2.23373        2.20782        0.76311
H         -2.45042        2.01270        1.81448
H         -1.25445        2.68343        0.66840
H         -3.01647        2.83904        0.33399
C         -1.79629        1.10107       -1.38035
H         -0.83797        1.62137       -1.40112
H         -1.68884        0.11577       -1.83482
H         -2.56190        1.68913       -1.89324
C         -3.44699        0.14599        0.16784
H         -3.29512       -0.82461       -0.30490
H         -3.65831       -0.00055        1.22777
H         -4.26262        0.69916       -0.30535
H         -1.40349        0.32353        0.48145
