26
1sa1ma1eda_132.log	Energy: -619042.3312042
S         -1.70979        0.41456       -0.00191
O         -0.76853        1.03097        0.93448
O         -3.07175        0.91740       -0.04530
O         -1.09239        0.21324       -1.34639
O         -1.84842       -1.14071        0.58769
H          0.25822       -0.58143       -1.42012
H         -2.77196       -1.39726        0.47078
H          2.96300       -1.74807       -0.76080
H          2.45762       -0.01760       -0.60069
H          2.36779       -1.39475        1.59454
H          0.87998       -0.55841        1.14527
H          1.25112       -3.37691        1.33253
H         -0.14096       -2.50867        1.12227
H          1.39141       -1.29085       -2.46698
H          0.65118       -2.20790       -1.26248
C          2.14621       -1.06297       -0.51572
C          1.55491       -1.37239        0.86198
N          1.05850       -1.29190       -1.50652
N          0.81365       -2.63567        0.80193
N          1.73319        2.09881       -0.49087
H          1.74146        2.84652       -1.17630
C          2.41939        2.51839        0.73032
H          1.99648        3.41564        1.20244
H          2.36552        1.70868        1.46499
H          3.47680        2.70632        0.51849
H          0.75733        1.90777       -0.26860
