29
1sa1dma1eda_50.log	Energy: -643706.8817922
S         -0.42640       -0.25091       -0.13301
O         -1.06839       -1.22941        0.74599
O         -0.00114        0.98939        0.58041
O          0.70503       -0.79511       -0.94299
O         -1.50031        0.19284       -1.22208
H         -2.39828        0.27589       -0.73853
H          3.61697        0.80137        1.68836
H          2.58596       -0.61261        1.37722
H          5.00872       -1.18251        1.05277
H          4.09175       -1.34093       -0.44756
H          5.93448        0.83617        0.20618
H          5.84370       -0.06080       -1.15779
H          1.75719        1.37276        0.27492
H          3.21155        1.39788       -0.66758
C          3.28572        0.09212        0.92470
C          4.46984       -0.61741        0.28150
N          2.55494        0.83817       -0.12139
N          5.29250        0.36652       -0.42357
H          2.00471        0.15184       -0.72020
N         -3.71644        0.23456        0.24310
C         -4.31280       -1.09279        0.09731
C         -4.68037        1.32264        0.12353
H         -3.24601        0.28243        1.14386
H         -4.71913       -1.19386       -0.91392
H         -3.53114       -1.84168        0.23777
H         -5.12549       -1.27036        0.81729
H         -5.10806        1.31508       -0.88357
H         -5.50504        1.24154        0.84767
H         -4.17229        2.27848        0.27148
