30
1sa1dma1tma_03.log	Energy: -633636.7719571
S          0.19793       -0.49296       -0.30880
O          1.18925       -1.00576       -1.25633
O         -0.60079       -1.49582        0.41324
O          0.99329        0.32545        0.80807
O         -0.72389        0.52572       -0.94025
H          1.98898        0.37577        0.54738
H         -2.04359        0.39906       -0.36683
N          3.48907        0.28134       -0.01267
C          4.28473       -0.65559        0.77391
C          4.16094        1.54989       -0.26599
H          3.21036       -0.15998       -0.88799
H          4.44876       -0.24061        1.77329
H          3.73499       -1.59381        0.87595
H          5.26461       -0.86308        0.31898
H          4.32709        2.06657        0.68450
H          5.13402        1.42335       -0.76379
H          3.52335        2.17947       -0.89093
N         -3.04741        0.32491        0.09272
C         -3.84630        1.45154       -0.42722
H         -3.34073        2.38616       -0.18119
H         -3.92249        1.36107       -1.51143
H         -4.84468        1.43818        0.01893
C         -3.60683       -0.98945       -0.29560
H         -3.69694       -1.02452       -1.38216
H         -2.90549       -1.75787        0.03058
H         -4.58909       -1.12284        0.16704
C         -2.83870        0.41861        1.55644
H         -2.17659       -0.39532        1.85340
H         -2.35453        1.37058        1.77808
H         -3.80248        0.35477        2.06951
