29
1sa1dma1eda_03.log	Energy: -643712.6760327
S         -0.02559       -1.64482        0.12020
O         -1.41810       -1.74256        0.56856
O          0.92323       -1.12292        1.13519
O          0.48556       -3.18470       -0.06676
O          0.14854       -0.97485       -1.17970
H         -0.25424       -3.68942       -0.42919
H          1.05024        1.54130       -0.34351
H         -0.90895        0.96659        1.07586
H         -1.11856        2.71482        1.19998
H         -3.26806        1.48327        1.33114
H         -3.23561        2.59482       -0.04764
H         -2.70822       -0.29133       -0.27711
H         -4.02027        0.52215       -0.85867
H         -0.83469        1.25086       -1.31648
H         -0.80356        2.87487       -1.15001
C         -1.30324        1.84760        0.55655
C         -2.80788        1.66304        0.34570
N         -0.54109        2.00625       -0.69191
N         -3.03795        0.60734       -0.62899
N          1.96564        1.10372        0.00701
C          2.58771        1.99994        0.99457
C          2.81859        0.76094       -1.14680
H          1.65471        0.21555        0.47796
H          2.84939        2.94680        0.51760
H          1.87424        2.18065        1.79964
H          3.48557        1.53449        1.40525
H          3.07580        1.67132       -1.69279
H          3.72872        0.27128       -0.79499
H          2.25197        0.07912       -1.78147
