24
1sa1a1tma_09.log	Energy: -584314.3701423
S          1.75617       -0.14651        0.00443
O          1.50105       -1.57935       -0.13385
O          1.22077        0.48351        1.22686
O          3.36770        0.01717        0.18475
O          1.40240        0.63413       -1.21345
H          3.79066       -0.61565       -0.41049
H          0.10279        1.72163       -0.80712
N         -0.60342        2.00600       -0.08859
H         -0.95560        2.94797       -0.22048
H         -0.06677        1.89686        0.78380
H         -1.37797        1.23616       -0.08003
N         -2.31188       -0.11713       -0.00421
C         -3.73050        0.19761       -0.15445
H         -4.04146        0.89771        0.62668
H         -3.90456        0.66125       -1.12986
H         -4.35846       -0.70450       -0.08256
C         -1.85479       -1.01064       -1.07604
H         -1.98284       -0.51723       -2.04371
H         -0.79718       -1.24697       -0.93850
H         -2.42848       -1.95031       -1.08035
C         -2.03490       -0.70436        1.31173
H         -0.96044       -0.86935        1.42098
H         -2.36278       -0.01369        2.09444
H         -2.56271       -1.66108        1.44401
