26
1sa1ma1eda_94.log	Energy: -619046.7466827
S          2.11662       -0.31252       -0.18858
O          3.46271       -0.57330       -0.66386
O          1.54026       -1.32084        0.71307
O          2.23871        1.06618        0.77137
O          1.14898        0.17858       -1.19974
H          3.03011        0.96808        1.31550
H         -0.00881        1.13219       -0.46065
H         -3.89221       -1.85047        0.25650
H         -3.53838       -1.52634       -1.44163
H         -1.63596       -2.58994       -0.27999
H         -1.20980       -1.02368       -0.96536
H         -1.85598       -1.43095        1.87018
H         -0.36510       -1.21447        1.21265
H         -4.51361        0.40757       -0.63124
H         -3.58437        0.45960        0.70447
C         -3.28738       -1.22406       -0.42053
C         -1.80992       -1.50954       -0.18916
N         -3.58441        0.20470       -0.27842
N         -1.35813       -0.98070        1.10669
N         -0.55716        1.58316        0.31652
H         -1.07564        0.77402        0.75924
C         -1.42161        2.68625       -0.14254
H         -1.89678        3.16207        0.71650
H         -0.81812        3.41709       -0.68124
H         -2.18670        2.26109       -0.79168
H          0.17172        1.88351        0.96722
