26
1sa1ma1eda_86.log	Energy: -619045.4422336
S         -2.06465       -0.36930       -0.05097
O         -0.86771       -0.58584       -0.92232
O         -3.20665       -1.20629       -0.38872
O         -1.66713       -0.29278        1.36269
O         -2.54353        1.16779       -0.39768
H         -3.30176        1.09014       -0.99030
H          2.85166       -1.36594        1.57960
H          1.61711       -2.48017        0.96428
H          3.38662       -2.40183       -0.66894
H          1.96095       -1.60375       -1.33848
H          4.36740       -0.25831       -0.35936
H          3.64785       -0.13553       -1.81817
H          0.46261       -0.55343        1.69963
H          1.47939        0.52612        0.88544
C          2.10499       -1.51744        0.79367
C          2.75069       -1.50891       -0.58633
N          1.08390       -0.45786        0.89225
N          3.46657       -0.25522       -0.82784
H          0.40275       -0.51384        0.08161
N          1.78880        2.20405        0.50670
H          2.04576        2.91032        1.18764
C          0.58769        2.60475       -0.24343
H          0.69991        3.56082       -0.76820
H          0.34257        1.82984       -0.97391
H         -0.26149        2.67218        0.43961
H          2.57807        2.06204       -0.11808
