32
1sa1eda1tma_36.log	Energy: -668365.4070136
S         -1.00388        1.54718        0.03678
O          0.06438        2.53574       -0.09298
O         -1.55855        0.98353       -1.19456
O         -0.66489        0.47263        1.02530
O         -2.26797        2.34300        0.69625
H         -1.90752        3.01553        1.28903
H          4.03154       -0.52838        1.03817
H          3.59947       -1.84114       -0.07920
H          4.07675        0.11325       -1.34313
H          2.33745       -0.16131       -1.46545
H          3.31774        2.18112       -0.89706
H          1.99239        1.72985       -0.08414
H          2.13333       -1.51635        1.93279
H          1.48298       -0.23906        1.17945
C          3.25836       -0.88748        0.34494
C          3.14174        0.14324       -0.77343
N          1.96925       -1.11958        1.01233
N          2.96910        1.49099       -0.24293
N         -1.14115       -1.89937       -0.09501
C         -0.77735       -2.98216        0.84677
H          0.29592       -2.91089        1.02652
H         -1.32446       -2.83745        1.77936
H         -1.03907       -3.94668        0.40473
C         -2.59854       -1.85788       -0.36850
H         -3.12620       -1.74155        0.57895
H         -2.79906       -0.99485       -1.00346
H         -2.89912       -2.78840       -0.85599
C         -0.34282       -1.97339       -1.34476
H         -0.59726       -1.10783       -1.95699
H          0.70994       -1.93807       -1.06071
H         -0.57900       -2.90588       -1.86389
H         -0.89619       -0.97427        0.36977
