21
1sa1a1dma_13.log	Energy: -559653.1793655
S         -1.39299       -0.18141       -0.02395
O         -1.12999       -1.61109        0.11866
O         -0.81936        0.46333       -1.22080
O         -2.99853       -0.02973       -0.26168
O         -1.09303        0.59854        1.21082
H         -3.43785       -0.66785        0.31582
H          0.16008        1.70843        0.84780
N          2.68531       -0.00122        0.08349
C          2.48000       -0.55638       -1.26226
C          2.24734       -0.92989        1.13662
H          3.67402        0.19551        0.21126
H          1.40775       -0.68180       -1.43593
H          2.87167        0.14137       -2.00760
H          2.97421       -1.52855       -1.39117
H          1.18189       -1.14087        1.01405
H          2.79158       -1.88302        1.09840
H          2.40065       -0.47049        2.11640
N          0.88139        2.06449        0.17234
H          1.16659        3.02060        0.35526
H          0.39307        1.95930       -0.72721
H          1.70063        1.35626        0.17323
