24
1sa1ma1dma_34.log	Energy: -584301.6728447
S         -1.71239       -0.34900        0.12967
O         -2.00755       -1.13438        1.31523
O         -0.39721       -0.56946       -0.50988
O         -2.76117       -0.83635       -1.01804
O         -1.96256        1.11866        0.28827
H         -3.54988       -1.16399       -0.56574
H         -0.71319        1.90244       -0.25236
N          2.50759       -1.32734       -0.09534
C          2.83979       -0.57008       -1.27728
C          3.23885       -0.92034        1.08357
H          1.50409       -1.32261        0.05833
H          3.87474       -0.76998       -1.57848
H          2.18330       -0.86541       -2.09975
H          2.76217        0.53321       -1.14505
H          4.30616       -1.13350        0.95219
H          3.14959        0.15997        1.31689
H          2.88811       -1.48506        1.95077
N          0.31017        2.03959       -0.55021
H          0.51285        1.09440       -0.91483
C          1.14767        2.33788        0.63295
H          2.19900        2.37562        0.34793
H          0.83397        3.28804        1.06401
H          0.99236        1.53889        1.35774
H          0.40069        2.73370       -1.28755
