26
1sa1ma1eda_56.log	Energy: -619046.7428386
S          0.76548       -0.95113       -0.01501
O          2.08241       -1.28494       -0.52936
O          0.12309       -1.81095        0.96203
O          0.84005        0.49564        0.63115
O         -0.19127       -0.75532       -1.23489
H          1.63323        1.01335        0.21114
H         -1.22038       -0.83943       -0.92471
H         -3.71896       -0.33740        1.28512
H         -1.95850       -0.45697        1.49716
H         -2.64408        1.90942        1.39333
H         -1.63016        1.48876        0.01072
H         -4.53525        1.86658       -0.05471
H         -3.39423        2.54392       -1.00983
H         -2.80660       -1.92331       -0.26352
H         -3.27241       -0.58077       -1.11579
C         -2.74765       -0.15350        0.80508
C         -2.61243        1.32472        0.46350
N         -2.60832       -0.94161       -0.43159
N         -3.64296        1.70030       -0.50796
N          2.96838        1.58436       -0.43721
H          3.01420        1.07458       -1.31607
C          4.08601        1.18217        0.43011
H          5.06814        1.39787       -0.00496
H          3.99966        1.70005        1.38787
H          4.00342        0.10866        0.60936
H          3.00471        2.57573       -0.65130
