26
1sa1ma1eda_35.log	Energy: -619049.8275666
S          1.74169        0.12051        0.02507
O          1.26785        1.50838       -0.09557
O          1.53430       -0.46161        1.35825
O          1.29261       -0.75220       -1.08690
O          3.35119        0.15325       -0.22012
H          3.74702        0.63746        0.51671
H         -3.08677       -1.53221       -0.59066
H         -1.94405       -2.67072       -1.34444
H         -1.84282       -2.88512        1.09055
H         -0.30987       -2.28180        0.46366
H         -2.00561       -0.97731        2.29511
H         -0.49612       -0.55583        1.77784
H         -1.65856       -0.61207       -2.40699
H         -1.60111        0.32545       -1.00250
C         -2.02877       -1.77755       -0.71842
C         -1.35814       -2.01384        0.63362
N         -1.37943       -0.64503       -1.42922
N         -1.43071       -0.82673        1.47646
H         -0.32804       -0.72748       -1.38681
N         -1.62529        1.93712       -0.50272
H         -0.67282        1.94138       -0.12510
C         -2.60546        2.27522        0.53364
H         -2.41995        3.24760        1.00611
H         -3.60960        2.28848        0.09958
H         -2.57180        1.49547        1.29661
H         -1.63233        2.63544       -1.24063
