26
1sa1ma1eda_116.log	Energy: -619045.6108178
S          1.84905       -0.35224       -0.20692
O          3.17549       -0.92563       -0.07983
O          0.88561       -1.10761       -1.02104
O          1.19370       -0.39333        1.34040
O          1.78960        1.10989       -0.45892
H          1.52015       -1.19300        1.77372
H          0.41109        1.71624        0.12841
H         -1.43821       -2.38959       -0.14750
H         -3.06519       -2.53353        0.50924
H         -3.17376       -1.45598       -1.63175
H         -3.66317       -0.30133       -0.38450
H         -0.90196       -0.37949       -1.41408
H         -2.07253        0.56298       -2.07904
H         -0.87561       -0.80340        1.41585
H         -2.45257       -0.56486        1.91515
C         -2.26838       -1.81648        0.27833
C         -2.80594       -0.85695       -0.78688
N         -1.79374       -1.22365        1.51669
N         -1.78306        0.11045       -1.21684
N         -0.57710        1.92535        0.45094
H         -1.18141        1.22632       -0.11443
C         -0.95883        3.32450        0.18618
H         -2.00071        3.48782        0.46457
H         -0.31457        4.00021        0.74894
H         -0.83347        3.51812       -0.87926
H         -0.62187        1.68727        1.43934
