24
1sa1ma1dma_13.log	Energy: -584315.2553122
S          1.70404       -0.14455       -0.16334
O          3.06759       -0.15533       -0.66408
O          0.61645        0.01998       -1.14162
O          1.42550       -1.66873        0.40664
O          1.49620        0.73750        1.02277
H          2.27020       -2.01205        0.72518
H          0.00470        1.34733        1.03868
N         -2.03501       -0.65521       -0.11353
C         -3.26802       -0.66293       -0.89389
C         -1.97112       -1.73490        0.87127
H         -1.22496       -0.73084       -0.73354
H         -4.12120       -0.46072       -0.23764
H         -3.22581        0.11946       -1.65605
H         -3.44374       -1.62631       -1.39402
H         -2.74263       -1.58431        1.63437
H         -2.12580       -2.72328        0.41591
H         -0.98764       -1.72934        1.34648
N         -0.99096        1.67544        0.86592
H         -1.53009        0.78580        0.56212
C         -1.00048        2.66249       -0.23600
H         -2.02673        2.95762       -0.45990
H         -0.41248        3.53707        0.04360
H         -0.54558        2.18112       -1.10224
H         -1.37933        2.05423        1.72572
