29
1sa1dma1eda_109.log	Energy: -643703.8525342
S          2.10035       -0.26074       -0.10750
O          2.39193        1.14959        0.18410
O          1.28385       -0.87168        0.99365
O          1.57615       -0.55614       -1.43454
O          3.52228       -1.05385       -0.05806
H          3.98902       -0.76989        0.73873
H         -1.38044        2.71454        1.22719
H          0.36780        2.37646        1.05691
H         -0.41647        2.90484       -1.12166
H         -0.13307        1.17216       -1.10181
H         -2.76123        2.46937       -0.97756
H         -2.22360        1.35797       -2.04074
H         -0.98003        0.77504        2.43192
H         -1.60651        0.10482        1.01917
C         -0.63683        2.03206        0.80377
C         -0.78609        1.95683       -0.70774
N         -0.82205        0.69417        1.43022
N         -2.16988        1.64930       -1.07089
H          0.05094        0.09491        1.29775
N         -2.43383       -1.38772        0.47857
C         -1.63964       -1.78554       -0.68941
C         -3.84669       -1.19562        0.16099
H         -2.34382       -2.11040        1.18720
H         -1.68017       -0.98410       -1.43058
H         -0.59428       -1.92021       -0.40340
H         -2.01541       -2.70767       -1.15580
H         -3.93248       -0.33957       -0.51355
H         -4.29929       -2.07569       -0.32047
H         -4.40445       -0.97074        1.07450
