32
1sa1eda1tma_07.log	Energy: -668371.2090791
S          0.00005       -1.04227        0.28163
O          0.78396       -1.97274        1.08214
O         -0.05094        0.34515        0.81284
O          0.66810       -0.94654       -1.16664
O         -1.39368       -1.51298       -0.02760
H          1.68249       -0.88003       -1.03393
H         -2.29834       -0.37773       -0.09546
H          4.86780        0.64008       -0.38191
H          3.94678        0.73272       -1.90154
H          3.45744        2.62414       -0.35492
H          2.01646        1.67133       -0.73645
H          2.94670        2.20758        1.79204
H          1.82520        1.06484        1.39675
H          3.83135       -1.48981       -0.96347
H          3.18736       -0.89669        0.41967
C          3.86251        0.57266       -0.82081
C          2.97528        1.65197       -0.20099
N          3.25607       -0.74312       -0.58731
N          2.77360        1.39106        1.22220
N         -2.98032        0.48375       -0.16824
C         -2.35062        1.42988       -1.11836
H         -1.37262        1.70063       -0.71953
H         -2.21747        0.92613       -2.07653
H         -2.98805        2.31051       -1.23725
C         -4.27313       -0.02874       -0.66390
H         -4.11805       -0.49565       -1.63722
H         -4.64672       -0.77755        0.03557
H         -4.99161        0.79090       -0.75172
C         -3.08481        1.06273        1.19060
H         -3.51440        0.31443        1.85788
H         -2.07506        1.30213        1.52598
H         -3.72032        1.95254        1.16424
