26
1sa1ma1eda_136.log	Energy: -619040.9942030
S         -1.55830        0.06764        0.05078
O         -1.97053       -1.33590        0.17749
O         -0.97169        0.63643        1.27262
O         -0.73603        0.29367       -1.17097
O         -2.88422        0.95100       -0.27472
H         -3.40941        1.00165        0.53525
H          2.46552       -2.87136       -0.68914
H          2.51082       -1.34886       -1.61936
H          3.18645       -1.12419        0.86024
H          1.91683       -0.02557        0.33128
H          1.66778       -2.11341        2.26862
H          0.56974       -0.94378        1.85641
H          0.38741       -2.70935       -1.81775
H          0.13136       -2.33188       -0.20063
C          2.03432       -1.87128       -0.78757
C          2.14470       -1.08131        0.52514
N          0.58742       -2.03500       -1.08390
N          1.21333       -1.64429        1.49764
H          0.12091       -1.11037       -1.31082
N          1.42414        2.15719       -0.07016
H          0.83295        1.94175       -0.86816
C          2.00724        3.48951       -0.18507
H          1.27307        4.30246       -0.29304
H          2.61358        3.70083        0.70109
H          2.67618        3.52333       -1.05068
H          0.79765        2.09792        0.72867
