23
1sa1a1eda_06.log	Energy: -594393.0820649
S         -1.92072       -0.39302       -0.09093
O         -3.13641       -1.09430       -0.46539
O         -1.10488       -1.09389        0.94192
O         -1.07697        0.14502       -1.16923
O         -2.41869        0.99750        0.66246
H         -3.22834        0.78539        1.14428
H          1.89397       -1.74818       -0.37858
H          1.28004       -0.39841       -1.34087
H          3.77629       -0.62200       -1.59104
H          3.34945        0.91231       -0.82723
H          4.39996       -1.43771        0.57104
H          4.96212        0.09658        0.59382
H          2.01951       -0.13742        1.47742
H          1.12934        0.96816        0.53316
C          1.92700       -0.66202       -0.50260
C          3.35763       -0.17298       -0.68064
N          1.34567       -0.05015        0.71381
N          4.11992       -0.46292        0.53503
H          0.41798       -0.50762        0.94109
N          0.34478        2.46754       -0.06370
H         -0.22137        1.99236       -0.77081
H          0.78603        3.27865       -0.48336
H         -0.31812        2.80025        0.63124
