30
1sa1dma1tma_25.log	Energy: -633627.8714067
S          0.46797        1.52671        0.01038
O          1.92336        1.59884       -0.03894
O         -0.26260        1.40234       -1.25257
O         -0.02474        0.51982        1.01004
O         -0.02918        2.96882        0.59949
H          0.68022        3.31028        1.15949
N          2.69880       -1.47363        0.25694
C          1.79286       -2.28931        1.03377
C          2.45773       -1.56848       -1.16903
H          2.61935       -0.50040        0.53664
H          1.97730       -3.35079        0.82708
H          1.95718       -2.11826        2.10071
H          0.72395       -2.08059        0.82509
H          2.66783       -2.58846       -1.51364
H          1.41910       -1.31781       -1.45820
H          3.12048       -0.88363       -1.70200
N         -2.01938       -0.80561       -0.00871
C         -1.61279       -1.45860       -1.27634
H         -1.20655       -0.69022       -1.93467
H         -0.83795       -2.19437       -1.05775
H         -2.48174       -1.94640       -1.72567
C         -2.44474       -1.78562        1.01370
H         -1.63481       -2.49716        1.17945
H         -2.65409       -1.25663        1.94401
H         -3.33991       -2.30994        0.67011
C         -3.04474        0.24161       -0.23897
H         -3.25068        0.73997        0.70892
H         -2.63452        0.96466       -0.94429
H         -3.95451       -0.22013       -0.63065
H         -1.15876       -0.28896        0.38889
