18
1sa1a1ma_09.log	Energy: -534998.6625215
S          1.17981       -0.24400        0.09158
O          2.52269       -0.69937        0.40278
O          0.26979        0.04933        1.20732
O          1.36818        1.25669       -0.59349
O          0.49442       -1.03904       -0.97027
H          2.21800        1.25476       -1.05224
H         -1.07936       -0.75998       -0.91575
N         -2.08434       -0.47825       -0.69600
H         -2.03118        0.55745       -0.46059
C         -2.56683       -1.24605        0.47426
H         -3.56367       -0.90529        0.75690
H         -2.58840       -2.30850        0.23136
H         -1.85788       -1.07210        1.28407
H         -2.66761       -0.61733       -1.51723
N         -1.51999        2.12429        0.14081
H         -2.11067        2.89924        0.42184
H         -0.80911        2.47945       -0.49467
H         -0.99651        1.78946        0.95096
