29
1sa1dma1eda_54.log	Energy: -643708.5061319
S          1.59127       -0.69741       -0.04914
O          0.95074       -1.94456       -0.50113
O          1.51196        0.40527       -1.03876
O          1.19111       -0.28906        1.30352
O          3.19237       -0.98738       -0.01286
H          3.34010       -1.74536        0.56834
H         -1.60454        3.07777       -1.08776
H         -2.58405        2.01262       -0.04180
H         -1.08674        3.24394        1.36092
H         -0.46542        1.58488        1.31910
H          1.12651        3.55826        0.93070
H          1.26211        2.30040       -0.09849
H         -1.54757        1.02578       -2.14398
H         -0.11661        0.93189       -1.28540
C         -1.57751        2.21350       -0.42080
C         -0.60729        2.49701        0.72054
N         -1.15680        1.01677       -1.20477
N          0.63941        3.04786        0.20387
H         -1.48159        0.09303       -0.70303
N         -1.86840       -1.28959        0.05484
C         -2.97470       -2.00547       -0.57424
C         -2.05304       -1.09544        1.49440
H         -0.99304       -1.80113       -0.09478
H         -3.89223       -1.41183       -0.49735
H         -2.75436       -2.16893       -1.63255
H         -3.16205       -2.98159       -0.10536
H         -2.88570       -0.40523        1.67085
H         -2.27333       -2.03912        2.01271
H         -1.13547       -0.67404        1.91100
