26
1sa1ma1eda_102.log	Energy: -619045.0669936
S         -0.66466       -1.00219       -0.05930
O          0.01146       -1.71449       -1.12814
O         -1.93743       -1.47716        0.45165
O          0.31787       -0.87221        1.16235
O         -0.84240        0.49146       -0.53602
H          1.30055       -0.83096        0.80166
H         -1.70048        0.91312       -0.07634
H          2.84819        1.30076       -1.52274
H          3.84492        2.24513       -0.43279
H          4.58283       -0.02005       -0.32114
H          3.84175        0.40041        1.23021
H          2.41765       -1.11030       -0.86336
H          3.12848       -1.76583        0.44790
H          1.01330        1.51982       -0.11872
H          1.90963        2.07973        1.14422
C          3.05258        1.48696       -0.46126
C          3.62872        0.21537        0.17107
N          1.84922        2.03697        0.13318
N          2.69221       -0.91663        0.09946
N         -3.02024        1.31893        0.54287
H         -3.11886        0.65736        1.30953
C         -4.08133        1.09666       -0.45178
H         -5.08674        1.22665       -0.03805
H         -3.94417        1.79343       -1.28108
H         -3.98183        0.07961       -0.83519
H         -3.06466        2.25663        0.92928
