23
1sa1a1eda_57.log	Energy: -594387.4783891
S         -1.62172       -0.40100       -0.07502
O         -1.37244       -0.05763        1.32514
O         -2.92169       -0.84955       -0.49430
O         -1.19825        0.85730       -0.94306
O         -0.56851       -1.48404       -0.51969
H         -0.91665        1.64145       -0.32653
H          0.28281       -1.39722        0.05856
H          3.44451       -0.21665        1.19414
H          3.34664       -1.81754        0.43808
H          3.80230        0.02825       -1.17161
H          2.37590       -0.93070       -1.57397
H          2.35700        1.70091       -1.49756
H          1.03294        0.83705       -1.13328
H          1.50656       -1.74035        1.82239
H          1.12013       -0.20660        1.44883
C          2.84721       -0.84758        0.52324
C          2.77960       -0.20293       -0.85723
N          1.49656       -1.06905        1.06089
N          1.98556        1.03199       -0.83254
N         -0.25608        2.68406        0.66558
H          0.74341        2.48694        0.60729
H         -0.59406        2.39561        1.57962
H         -0.40990        3.68027        0.55611
