29
1sa1dma1eda_80.log	Energy: -643708.3922452
S         -0.18231       -0.67537       -0.15979
O          0.03888       -0.71908        1.30013
O         -0.36793        0.70132       -0.66535
O          0.91114       -1.40986       -0.87713
O         -1.48641       -1.49577       -0.51296
H         -2.31528       -0.93693       -0.26163
H          4.58851        0.42103        0.62544
H          4.29090       -0.55587       -0.83977
H          3.71310        1.90003       -1.14596
H          2.34003        0.81966       -1.42024
H          2.53157        2.80157        0.59150
H          1.24717        1.82680        0.19403
H          3.33567       -1.53221        1.24492
H          2.32870       -0.19869        1.33247
C          3.82277        0.05235       -0.06247
C          3.01547        1.21367       -0.65431
N          2.88219       -0.80205        0.70290
N          2.24351        1.85119        0.40523
H          2.13449       -1.22257        0.04115
N         -3.54102        0.03220        0.11475
C         -3.67781        0.99164       -0.98397
C         -3.21271        0.67645        1.38976
H         -4.40046       -0.49951        0.21489
H         -2.70439        1.46002       -1.15009
H         -3.96085        0.46101       -1.89610
H         -4.42670        1.76842       -0.77150
H         -2.24405        1.17153        1.28816
H         -3.96696        1.41820        1.68956
H         -3.11897       -0.08361        2.16808
