32
1sa1eda1tma_45.log	Energy: -668363.4393071
S         -1.86061       -0.88110       -0.09276
O         -1.43734       -1.35703       -1.40733
O         -2.55043        0.41145       -0.03903
O         -2.97467       -1.94562        0.43440
O         -0.75765       -0.93736        0.92133
H         -2.76601       -2.79921        0.03280
H         -0.38235        0.52497        1.35043
H          1.18578        3.03650        0.89407
H          1.63932        1.34562        0.44711
H          0.72379        2.78816       -1.48094
H         -0.11182        1.25941       -1.23538
H         -1.26327        3.80903       -1.08485
H         -1.98160        2.35105       -0.75628
H          0.16627        1.66520        2.48941
H         -1.02884        2.09033        1.39152
C          0.82075        2.07126        0.53237
C          0.07075        2.24383       -0.79224
N         -0.15709        1.55656        1.53198
N         -1.18643        2.95130       -0.55627
N          2.76521       -0.52050       -0.02464
C          2.10975       -0.89278       -1.27173
H          1.04539       -1.07237       -1.10085
H          2.21434       -0.08224       -2.00131
H          2.54705       -1.80710       -1.71445
C          4.17985       -0.26694       -0.23192
H          4.31137        0.52896       -0.97212
H          4.64434        0.05525        0.70551
H          4.72001       -1.16274       -0.59341
C          2.55495       -1.53934        0.99416
H          2.99821       -1.21176        1.94085
H          1.48273       -1.69458        1.13735
H          3.01754       -2.50595        0.71844
