18
1sa1a1ma_04.log	Energy: -534994.6832210
S          1.26018       -0.07585       -0.10299
O          2.61085       -0.54275       -0.35492
O          0.33496        0.03309       -1.23926
O          0.54301       -1.28421        0.79424
O          1.17083        1.12327        0.77963
H          1.23078       -1.68346        1.34213
H         -0.23850        1.87250        0.39561
N         -2.33624       -0.35572        0.66642
H         -1.48393       -0.78355        1.03347
C         -2.72368       -1.06337       -0.56506
H         -2.94725       -2.12260       -0.39712
H         -3.60587       -0.58585       -1.00085
H         -1.89461       -0.99242       -1.27240
H         -3.05483       -0.45173        1.37725
N         -1.19041        2.02395       -0.04910
H         -1.02878        1.92992       -1.05167
H         -1.60216        2.92175        0.18375
H         -1.78631        1.17652        0.26940
