21
1sa1a1dma_05.log	Energy: -559659.6231115
S         -1.54810       -0.17121       -0.19438
O         -1.31934        1.16439       -0.76525
O         -2.92695       -0.62342       -0.13646
O         -0.56208       -1.17002       -0.68174
O         -1.06413       -0.02101        1.40028
H         -1.85575        0.18084        1.91465
N          1.88409       -0.33890       -0.06576
C          2.91630       -0.58734       -1.08615
C          2.15868       -0.93940        1.25401
H          1.73761        0.70668        0.04933
H          3.02093       -1.66153       -1.24761
H          2.60933       -0.11076       -2.01761
H          3.86968       -0.16995       -0.75530
H          2.27431       -2.01885        1.14339
H          3.07090       -0.50850        1.67227
H          1.30531       -0.73062        1.90007
H          0.94417       -0.70213       -0.39838
N          1.17752        2.35812        0.17430
H          0.22916        2.16388       -0.17097
H          1.57684        3.09442       -0.39866
H          1.08593        2.72222        1.11738
