26
1sa1ma1eda_120.log	Energy: -619043.6060449
S          1.71087       -0.61682       -0.07434
O          2.38115        0.47935       -0.77250
O          1.22404       -0.32396        1.28530
O          0.66101       -1.28608       -0.89538
O          2.85702       -1.74799        0.17805
H          3.45169       -1.73044       -0.58327
H         -2.57659        0.75052        1.27251
H         -1.42047        1.05803       -0.05924
H         -3.77285        0.84864       -0.91986
H         -2.73299       -0.43109       -1.54673
H         -4.75531       -0.74967        0.54461
H         -4.50897       -1.65694       -0.79200
H         -0.70583       -0.72672        1.48176
H         -2.07075       -1.63004        0.97160
C         -2.13410        0.33487        0.36199
C         -3.21277       -0.05197       -0.63875
N         -1.39564       -0.89732        0.73760
N         -4.04002       -1.12096       -0.07183
H         -0.76264       -1.20483       -0.05123
N          0.07451        2.51634       -0.68171
H          0.85080        1.96932       -1.05116
C          0.45471        3.06264        0.62241
H          1.29373        3.77134        0.58893
H         -0.40392        3.57182        1.07430
H          0.74514        2.23525        1.27568
H         -0.10968        3.26357       -1.34263
