29
1sa1dma1eda_90.log	Energy: -643705.6577911
S          0.42130        1.13834       -0.05806
O          0.32909        1.02287        1.41698
O          0.10550       -0.22052       -0.65930
O         -0.38073        2.20982       -0.63827
O          1.92284        1.43763       -0.45247
H          2.51133        0.63068       -0.22888
H         -3.61793        0.41317        1.33564
H         -2.40389        1.22425        0.30504
H         -4.31621        0.38315       -1.07560
H         -2.79144       -0.40073       -1.49556
H         -4.98692       -1.60947        0.01671
H         -4.13185       -2.22983       -1.22931
H         -1.37308       -0.34547        1.82236
H         -2.27648       -1.60492        1.09878
C         -2.89510        0.27381        0.52645
C         -3.55182       -0.31514       -0.71333
N         -1.85294       -0.68217        0.98360
N         -4.06295       -1.65281       -0.39989
H         -1.06092       -0.69528        0.24248
N          3.37591       -0.72803        0.00857
C          3.22374       -1.50844       -1.22081
C          2.84476       -1.41642        1.18546
H          4.35532       -0.50519        0.15734
H          2.15543       -1.61220       -1.42898
H          3.68123       -0.96903       -2.05322
H          3.67949       -2.50674       -1.14459
H          1.77502       -1.57813        1.03194
H          3.33274       -2.38665        1.36117
H          2.96405       -0.78140        2.06552
