23
1sa1a1eda_33.log	Energy: -594389.4774974
S         -1.88434       -0.13151       -0.09760
O         -1.50149       -0.48330        1.28772
O         -2.16966        1.30010       -0.27381
O         -0.95794       -0.70767       -1.09353
O         -3.28176       -0.90716       -0.41053
H         -3.99033       -0.40534        0.01348
H          2.95000       -0.65731        1.67018
H          2.31442       -2.14207        0.94268
H          4.29209       -1.44625       -0.30008
H          2.86517       -1.28481       -1.32448
H          4.28674        0.93530       -0.05211
H          3.89617        0.73376       -1.62899
H          0.48494       -0.61652        1.32791
H          1.21486        0.64641        0.52548
C          2.48204       -1.07544        0.77408
C          3.36916       -0.86623       -0.44699
N          1.17745       -0.41592        0.59195
N          3.58734        0.55597       -0.68111
H          0.66567       -0.71309       -0.26363
N          0.64493        2.31398        0.34935
H          0.71906        2.96909        1.12055
H         -0.34931        2.21550        0.12016
H          1.11153        2.72562       -0.45236
