26
1sa1ma1eda_112.log	Energy: -619044.2205869
S          2.12986       -0.06235        0.13207
O          0.76745        0.42900        0.50777
O          3.15744        0.11504        1.14321
O          2.04095       -1.40053       -0.48123
O          2.50851        0.97205       -1.08515
H          3.47251        1.01491       -1.13279
H         -2.08323       -3.01301       -0.01182
H         -1.15853       -2.31867        1.34937
H         -3.62730       -1.55044        1.18328
H         -2.42804       -0.25751        1.27321
H         -4.26014       -0.57767       -0.76204
H         -2.90334        0.39643       -0.78942
H         -1.26527       -1.22026       -1.36685
H         -0.27371       -0.63261       -0.11970
C         -1.69313       -2.09083        0.42534
C         -2.81209       -1.06625        0.63850
N         -0.73603       -1.49506       -0.53286
N         -3.25543       -0.55746       -0.65581
H          0.06920       -2.08287       -0.77155
N         -1.56637        1.96464       -0.54370
H         -0.60693        1.69401       -0.32632
C         -2.09813        2.78485        0.54762
H         -1.56936        3.73581        0.69364
H         -3.15523        3.00351        0.36674
H         -2.02954        2.22230        1.48273
H         -1.52885        2.50780       -1.40045
