23
1sa1a1eda_24.log	Energy: -594389.6824922
S         -1.12330       -0.65903       -0.23426
O         -0.23536       -1.32474       -1.16690
O         -2.51598       -1.05780       -0.13496
O         -0.51703       -0.70701        1.20244
O         -1.06739        0.88813       -0.60703
H          0.55934       -0.62786        1.20288
H         -1.88806        1.34793       -0.21883
H          3.76357       -0.92374        0.10612
H          2.22547       -1.52872       -0.56425
H          2.98787        0.47571       -1.78865
H          1.45335        0.76312       -0.96886
H          4.05673        1.80314       -0.13737
H          2.63167        2.58925       -0.30097
H          2.33714       -1.28468        1.93504
H          2.32069        0.34302        1.67115
C          2.69416       -0.70584       -0.02035
C          2.51954        0.59134       -0.80206
N          2.03285       -0.56069        1.29072
N          3.05316        1.71176       -0.02225
N         -3.36791        1.78009        0.41283
H         -3.95840        2.36538       -0.16801
H         -3.36979        2.15791        1.35420
H         -3.76958        0.84425        0.44276
