18
1sa1a1ma_06.log	Energy: -534998.0535894
S          1.17413       -0.11629        0.00897
O          1.41787        1.33018       -0.10239
O          0.53319       -0.54626        1.26305
O          0.49198       -0.67634       -1.18573
O          2.63963       -0.81638        0.07391
H          3.19866       -0.38385       -0.58522
N         -1.93461       -0.52317        0.04179
H         -1.95051        0.54050        0.03368
H         -1.27465       -0.77917       -0.72023
C         -3.26064       -1.15450       -0.04752
H         -3.15203       -2.23911       -0.03984
H         -3.87066       -0.84322        0.80088
H         -3.74464       -0.84501       -0.97392
H         -1.38946       -0.77644        0.87954
N         -1.46834        2.24458        0.00739
H         -1.66973        2.77934        0.84679
H         -1.76255        2.80633       -0.78548
H         -0.44739        2.14880       -0.04957
