26
1sa1ma1eda_21.log	Energy: -619049.7231716
S         -2.10586       -0.39277       -0.15250
O         -1.16773        0.34473       -1.01450
O         -3.35407       -0.84667       -0.74105
O         -1.40303       -1.42756        0.65926
O         -2.51790        0.77536        0.94489
H         -3.34791        0.50373        1.35726
H          1.54715       -2.05708       -0.73644
H          1.12376       -0.44789       -1.33255
H          3.58750       -0.89005       -1.60924
H          3.30539        0.44163       -0.48336
H          4.02854       -2.29101        0.28456
H          4.76545       -0.89019        0.69116
H          1.77972       -0.97855        1.46777
H          1.06168        0.42941        0.80714
C          1.70478       -0.98601       -0.58136
C          3.18667       -0.63897       -0.61819
N          1.14985       -0.62826        0.74317
N          3.86602       -1.31066        0.49088
H          0.17068       -1.01640        0.84088
N          0.62603        2.11041        0.50257
H         -0.22361        1.85343       -0.00581
C          1.50340        2.90855       -0.35599
H          1.06813        3.86844       -0.65956
H          2.45021        3.10556        0.15591
H          1.72133        2.34175       -1.26579
H          0.33518        2.64285        1.31609
