29
1sa1dma1eda_56.log	Energy: -643708.1953264
S         -0.24975        1.81572       -0.22221
O         -0.80091        3.05145       -0.75357
O         -1.16357        1.09405        0.70912
O          0.38588        0.89004       -1.17341
O          1.02864        2.25963        0.72485
H          0.79834        3.10179        1.13820
H         -1.00761       -1.03648       -1.24303
H         -0.69702       -2.76580       -1.01068
H         -3.15697       -2.10827       -1.28314
H         -2.78516       -3.14388        0.09843
H         -2.98031       -0.22016        0.41412
H         -4.15235       -1.30833        0.82590
H          0.62127       -1.49462        0.48698
H         -0.72788       -0.55401        0.93731
C         -1.16552       -1.88224       -0.56984
C         -2.64948       -2.13294       -0.30656
N         -0.44053       -1.52854        0.67771
N         -3.15864       -1.18803        0.67537
H         -0.67553       -2.15377        1.44561
N          2.18103       -1.11604       -0.02917
C          2.89323       -2.10493       -0.83125
C          2.98931       -0.57147        1.06100
H          1.87090       -0.34222       -0.62243
H          3.12926       -2.98027       -0.21664
H          2.26077       -2.42762       -1.66273
H          3.83496       -1.71456       -1.24408
H          3.19643       -1.35637        1.79662
H          3.94966       -0.16949        0.70725
H          2.43871        0.23886        1.54427
