18
1sa1a1ma_02.log	Energy: -534998.5475134
S         -1.08157       -0.06681       -0.00211
O         -0.32432       -0.05866       -1.25716
O         -0.49441       -1.00423        1.00145
O         -1.37045        1.25508        0.56936
O         -2.51644       -0.71345       -0.41009
H         -3.13263       -0.53905        0.31370
N          2.10644       -0.49033        0.67799
H          1.12447       -0.79143        0.94451
H          2.01230        0.54734        0.43879
C          2.55496       -1.25196       -0.51027
H          3.51422       -0.86453       -0.85601
H          2.64671       -2.30824       -0.25725
H          1.79125       -1.12333       -1.27813
H          2.73127       -0.60517        1.47197
N          1.48049        2.10320       -0.12088
H          1.22661        1.93506       -1.09234
H          2.01186        2.96590       -0.07167
H          0.58577        2.24423        0.35360
