32
1sa1eda1tma_35.log	Energy: -668366.7686715
S          1.55561        1.04659        0.00940
O          1.08921        2.43241        0.00004
O          1.57378        0.34849        1.29741
O          0.91088        0.21145       -1.04991
O          3.13637        1.11465       -0.40711
H          3.24124        1.85777       -1.01535
H         -4.24702        0.98922        0.16943
H         -3.50984       -0.15426        1.29941
H         -2.50654        2.06724        1.57302
H         -1.29915        0.93761        0.96803
H         -2.53648        3.08115       -0.54343
H         -0.97048        2.56647       -0.50827
H         -3.68712       -0.83676       -1.15660
H         -2.43373        0.19320       -1.38005
C         -3.31597        0.44851        0.40232
C         -2.21737        1.46905        0.69653
N         -2.88314       -0.42052       -0.69772
N         -1.94082        2.26294       -0.49524
N          0.22675       -2.12166       -0.01662
C         -0.51152       -2.86914       -1.05964
H         -1.46993       -2.36763       -1.20600
H          0.06994       -2.85083       -1.98247
H         -0.65933       -3.90057       -0.72935
C          1.57366       -2.68480        0.24076
H          2.13065       -2.69944       -0.69670
H          2.08082       -2.03332        0.95308
H          1.47107       -3.69782        0.63756
C         -0.56531       -1.99339        1.23189
H         -0.02422       -1.32603        1.90310
H         -1.53239       -1.56690        0.96218
H         -0.68911       -2.98421        1.67733
H          0.39939       -1.14314       -0.40305
