26
1sa1ma1eda_107.log	Energy: -619044.5035390
S         -1.87190        0.11433       -0.17294
O         -3.15028        0.41798       -0.79188
O         -0.65165        0.60247       -0.82436
O         -1.85453        0.93849        1.25489
O         -1.73503       -1.32117        0.22987
H         -2.76952        1.00339        1.55763
H         -0.33090       -1.82696        0.51229
H          2.16405       -3.19135       -0.43391
H          0.77573       -2.61032       -1.39379
H          2.89570       -1.11640       -1.51400
H          1.39379       -0.29622       -1.04628
H          3.67061       -0.79005        0.65813
H          2.48602        0.39360        0.72333
H          0.47091       -3.18970        1.13020
H          1.21364       -1.68302        1.30569
C          1.43742       -2.38329       -0.55649
C          2.14100       -1.02650       -0.72494
N          0.63216       -2.28854        0.68891
N          2.67949       -0.60623        0.56528
N          1.54061        2.12314        0.58271
H          0.64885        1.76609        0.23765
C          2.12968        3.01872       -0.41237
H          1.49440        3.87412       -0.67972
H          3.08674        3.40244       -0.04577
H          2.32774        2.45393       -1.32818
H          1.34026        2.62690        1.44012
