26
1sa1ma1eda_17.log	Energy: -619049.7778892
S          1.95748       -0.15607       -0.15251
O          3.06116       -0.24652       -1.09589
O          0.75287       -0.94897       -0.45046
O          2.48275       -0.84307        1.23938
O          1.60027        1.24212        0.22793
H          3.41109       -0.59890        1.34836
H          0.07691        1.67173       -0.08334
H         -1.70087       -2.50140        0.34163
H         -3.14318       -2.04473        1.25517
H         -3.48685       -1.83317       -1.14748
H         -3.69246       -0.28344       -0.31009
H         -1.06890       -0.91054       -1.46286
H         -2.27226       -0.32680       -2.41978
H         -1.49453       -0.96806        2.37918
H         -0.62685       -0.62778        1.04821
C         -2.32836       -1.64771        0.64103
C         -2.95461       -1.03758       -0.60826
N         -1.57778       -0.65934        1.41674
N         -1.94551       -0.38518       -1.46086
N         -0.88905        1.96627       -0.40630
H         -0.74831        2.63849       -1.15747
C         -1.69223        2.53811        0.69603
H         -2.63895        2.91239        0.30281
H         -1.88039        1.73060        1.40533
H         -1.14099        3.35086        1.17023
H         -1.35192        1.09007       -0.81720
