29
1sa1dma1eda_32.log	Energy: -643706.7368815
S         -0.34309       -0.79993       -0.24768
O         -0.52920        0.50932       -0.87618
O          0.54017       -1.74135       -0.91172
O          0.15194       -0.57724        1.23253
O         -1.72925       -1.45629       -0.01244
H         -2.50518       -0.70705        0.13305
H          4.46641       -0.59894        0.15438
H          2.96971       -1.38442       -0.41275
H          3.53511        0.53277       -1.84883
H          2.00756        0.80056       -1.00910
H          4.55551        2.08571       -0.37367
H          3.08017        2.76010       -0.58331
H          3.08161       -0.91472        2.03748
H          2.96753        0.68316        1.64893
C          3.37975       -0.47808        0.03886
C          3.08801        0.71620       -0.86231
N          2.72978       -0.26157        1.34414
N          3.56234        1.94646       -0.22130
H          1.19396       -0.43335        1.26208
N         -3.52122        0.30905        0.29839
C         -3.80310        0.88526       -1.02309
C         -3.02163        1.30314        1.25863
H         -4.36355       -0.12359        0.66818
H         -2.86398        1.25688       -1.43878
H         -4.18641        0.10392       -1.68265
H         -4.53204        1.70354       -0.96655
H         -2.08369        1.70872        0.87332
H         -3.73820        2.12035        1.40963
H         -2.81886        0.81322        2.21289
