29
1sa1dma1eda_20.log	Energy: -643709.6327937
S         -2.09411       -0.40959       -0.03228
O         -2.90554        0.70275        0.45634
O         -1.15224       -0.09373       -1.11913
O         -1.43392       -1.18378        1.05749
O         -3.13105       -1.45674       -0.73563
H         -3.93740       -1.46075       -0.20360
H          1.45667       -2.47481       -0.19801
H          1.02093       -1.10906       -1.23367
H          3.44674       -1.70439       -1.51352
H          3.27194       -0.08676       -0.82577
H          3.99592       -2.48974        0.68366
H          4.78956       -1.06395        0.59820
H          0.20193       -0.92561        1.04515
H          1.84220       -0.79234        1.55725
C          1.64203       -1.41382       -0.38921
C          3.12342       -1.15252       -0.62072
N          1.18487       -0.64529        0.78941
N          3.86913       -1.48681        0.59375
H          1.13165        0.39593        0.52913
N          0.72193        1.92631       -0.12079
C          1.73883        2.68458       -0.83856
C          0.03081        2.71596        0.89971
H          0.02460        1.55937       -0.77174
H          2.54286        2.96710       -0.15026
H          2.16629        2.06827       -1.63491
H          1.34120        3.60482       -1.29161
H          0.73011        2.97037        1.70359
H         -0.38356        3.64981        0.49379
H         -0.79586        2.13255        1.31238
