18
1sa1a1ma_07.log	Energy: -534994.0461069
S          1.10627       -0.17570        0.00536
O          1.14266       -1.59914       -0.30840
O          0.36007        0.21945        1.21049
O          2.64046        0.25516        0.35370
O          0.71304        0.67622       -1.16072
H          3.22186       -0.27522       -0.20677
H         -0.51242        1.57892       -0.71253
N         -2.49262       -0.31740        0.63317
H         -1.68917       -0.50948        1.23403
C         -2.50551       -1.27552       -0.48460
H         -2.63757       -2.31255       -0.15862
H         -3.31144       -1.01791       -1.17696
H         -1.55405       -1.21159       -1.01729
H         -3.33269       -0.41047        1.19514
N         -1.35038        2.01447       -0.20934
H         -1.85480        2.67126       -0.79661
H         -0.98408        2.47873        0.61894
H         -1.96185        1.17962        0.11502
