27
1sa1ma1tma_12.log	Energy: -608973.2066499
S         -1.73935        0.03262       -0.07883
O         -3.06003        0.25211       -0.63962
O         -1.40642        0.77560        1.14271
O         -1.69827       -1.57265        0.37727
O         -0.61926        0.04081       -1.06115
H         -2.53170       -1.76612        0.82549
H          0.74646       -0.43926       -0.40786
N          1.23752        2.23941        0.69475
H          0.31325        1.90359        0.97101
C          1.14251        2.87488       -0.62243
H          0.49178        3.75959       -0.64864
H          2.13936        3.17550       -0.96368
H          0.73911        2.14817       -1.33261
H          1.52050        2.92219        1.39047
N          1.58079       -1.00595       -0.06499
C          1.51970       -1.03422        1.41830
H          1.63121       -0.01076        1.77470
H          0.54544       -1.42413        1.71363
H          2.32419       -1.67190        1.79378
C          1.38563       -2.35429       -0.64946
H          0.41923       -2.73355       -0.31589
H          1.37938       -2.26579       -1.73607
H          2.19663       -3.01114       -0.32599
C          2.81369       -0.34505       -0.55228
H          2.76768       -0.27803       -1.64013
H          2.83868        0.65498       -0.11448
H          3.68292       -0.93443       -0.24913
