23
1sa1a1eda_48.log	Energy: -594389.2351050
S          1.63915       -0.25532       -0.24157
O          0.55527        0.10282       -1.15789
O          2.94695       -0.55067       -0.76048
O          1.74668        0.89360        0.83421
O          1.18693       -1.49733        0.61841
H          0.98792        1.58416        0.72763
H          0.23890       -1.34403        0.97066
H         -1.36206       -1.61550       -0.73103
H         -2.59253       -2.33893        0.30356
H         -3.59267       -0.80258       -1.32476
H         -3.85120       -0.18030        0.31469
H         -1.62527        0.71105       -1.38568
H         -3.03250        1.53985       -1.18482
H         -1.31296        0.06982        1.25741
H         -1.76567       -1.25198        2.11113
C         -2.08277       -1.40173        0.06584
C         -3.08664       -0.37550       -0.44691
N         -1.32897       -0.94816        1.24768
N         -2.39626        0.88570       -0.74150
N         -0.19243        2.65248        0.55219
H          0.08053        3.26517       -0.21069
H         -0.40012        3.23446        1.35729
H         -1.04524        2.15987        0.26350
