18
1sa1a1ma_12.log	Energy: -534990.2607771
S          1.12808        0.02866        0.00001
O          0.54488       -0.59901        1.21886
O          0.54490       -0.59898       -1.21886
O          1.15309        1.48091        0.00004
O          2.69872       -0.37904        0.00002
H          2.76565       -1.34260       -0.00000
N         -1.65681       -1.52606       -0.00002
H         -1.02804       -1.25387        0.79289
H         -1.02805       -1.25385       -0.79293
C         -2.94359       -0.78746       -0.00001
H         -3.50822       -1.05603       -0.89333
H         -3.50820       -1.05600        0.89333
H         -2.71273        0.28597       -0.00003
H         -1.77599       -2.53631       -0.00003
N         -1.80869        2.29371       -0.00004
H         -2.03567        2.85384       -0.81565
H         -0.79504        2.16650        0.00005
H         -2.03581        2.85388        0.81551
