23
1sa1a1eda_25.log	Energy: -594391.0691639
S          0.86402       -0.49027       -0.19933
O          0.21785       -1.26341       -1.26513
O          0.93834        0.96659       -0.44942
O          0.20406       -0.77389        1.12496
O          2.35413       -1.02323       -0.08204
H         -1.25273       -1.11120        0.74121
H          2.95664       -0.26831        0.21406
H         -4.04322       -0.06522        0.30210
H         -3.15715       -0.09747        1.85150
H         -2.99523        2.14475        0.67994
H         -1.41757        1.38576        0.93453
H         -2.61209        1.97088       -1.57525
H         -1.08240        1.42335       -1.23582
H         -2.66562       -2.03148        0.36162
H         -2.00490       -0.94707       -0.72736
C         -3.05663        0.00255        0.76834
C         -2.35580        1.30861        0.37619
N         -2.22661       -1.11993        0.26648
N         -2.07479        1.29301       -1.05311
N          3.71117        1.20920        0.55535
H          3.89970        1.43163        1.52626
H          2.91636        1.76339        0.23870
H          4.52489        1.45408        0.00262
