29
1sa1dma1eda_14.log	Energy: -643709.6940512
S          0.28590        0.43186        0.28481
O          1.34454        0.72009        1.28914
O         -0.73411        1.46968        0.15335
O          0.90267        0.05079       -1.03017
O         -0.41061       -0.88584        0.84000
H          2.52547       -0.16543       -0.80543
H         -1.21987       -1.12291        0.24909
H         -4.64760       -1.38102       -0.58109
H         -3.81861       -1.77392        0.94492
H         -4.77225        0.55130        0.87975
H         -3.03053        0.51380        1.18793
H         -4.24655        1.90226       -0.83849
H         -2.63919        1.57058       -0.70613
H         -2.50928       -2.38242       -1.03078
H         -2.46889       -0.79994       -1.46165
C         -3.77413       -1.15127        0.04480
C         -3.79942        0.32868        0.42811
N         -2.51799       -1.43576       -0.66448
N         -3.56742        1.15822       -0.75457
N          3.36786       -0.14324       -0.16297
C          4.40885        0.76851       -0.66440
C          3.81096       -1.51497        0.14233
H          2.86143        0.26466        0.66342
H          4.82841        0.37078       -1.59017
H          3.95283        1.74017       -0.85476
H          5.19756        0.87204        0.08308
H          4.20704       -1.98085       -0.76164
H          4.58223       -1.48903        0.91405
H          2.94887       -2.07795        0.50150
