23
1sa1a1eda_38.log	Energy: -594389.1912270
S          1.56509       -0.07464        0.09609
O          1.53466        1.34189        0.48011
O          1.10711       -1.04027        1.09056
O          0.92479       -0.30257       -1.23887
O          3.13823       -0.43436       -0.12007
H          3.56817        0.35245       -0.47997
H         -2.73774       -2.29154        0.34559
H         -1.03199       -2.12895        0.89295
H         -2.67801       -0.38462        1.87790
H         -1.22160        0.25024        1.12079
H         -3.90847        0.59264        0.18312
H         -2.50961        1.43473       -0.17545
H         -1.47629       -2.28678       -1.62489
H         -2.09580       -0.72223       -1.41053
C         -1.84946       -1.65336        0.35090
C         -2.16615       -0.26244        0.91791
N         -1.43325       -1.44193       -1.06226
N         -2.93101        0.50428       -0.06300
H         -0.44392       -1.02354       -1.12762
N         -1.03884        2.82242       -0.24959
H         -0.93400        3.20001       -1.18612
H         -0.15078        2.37221       -0.01359
H         -1.14447        3.61357        0.37769
