21
1sa1a1dma_08.log	Energy: -559657.1763322
S         -1.55292       -0.03925        0.02073
O         -2.89794       -0.56294        0.19404
O         -0.76780        0.17052        1.25045
O         -0.71547       -1.33709       -0.71874
O         -1.35780        1.02202       -0.97334
H         -1.19973       -2.14107       -0.49348
H          1.58004        0.68969       -0.00682
N          1.83011       -0.35588       -0.05640
C          2.22780       -0.79999        1.29497
C          2.84881       -0.55854       -1.10179
H          0.95215       -0.84206       -0.31988
H          3.09482       -0.22207        1.62082
H          1.37995       -0.62526        1.95783
H          2.47936       -1.86225        1.27486
H          3.75393       -0.00929       -0.83599
H          3.07860       -1.62134       -1.19688
H          2.45675       -0.18344       -2.04766
N          1.05949        2.28799        0.08328
H          0.18751        2.16402       -0.44280
H          1.53746        3.11708       -0.25262
H          0.77126        2.45035        1.04432
