23
1sa1a1eda_32.log	Energy: -594391.7407735
S          1.46987       -0.63008        0.14535
O          2.38071       -1.70027        0.51262
O          0.31971       -1.06993       -0.69604
O          1.03910        0.29809        1.20188
O          2.32861        0.37841       -0.84986
H          2.92084       -0.17503       -1.37503
H         -1.30270        0.28271        1.28433
H         -2.55962        1.51416        1.06174
H         -3.39982       -0.88455        1.41117
H         -4.08428       -0.02270        0.02942
H         -1.79128       -1.84454       -0.30437
H         -3.36023       -2.19492       -0.68316
H         -0.83136        1.83327       -0.51891
H         -0.80812        0.18654       -0.90599
C         -2.11066        0.61695        0.62938
C         -3.16191       -0.47156        0.41902
N         -1.44856        0.98103       -0.65143
N         -2.69310       -1.44442       -0.55596
H         -2.11988        1.11558       -1.40454
N          0.49110        2.90456       -0.04870
H          0.39034        3.82601        0.36305
H          1.19189        2.96577       -0.78190
H          0.88051        2.26808        0.65209
