26
1sa1ma1eda_93.log	Energy: -619045.8327465
S         -0.98514       -1.23130       -0.01936
O         -0.42608       -2.44870       -0.56948
O         -2.35090       -1.18653        0.46501
O         -0.06434       -0.73623        1.16932
O         -0.78598       -0.09649       -1.09918
H          0.92008       -0.82810        0.86279
H         -1.49524        0.68483       -0.93061
H          2.67136        1.05860       -1.57621
H          3.57322        2.07662       -0.46775
H          4.29406       -0.20843       -0.19528
H          3.48765        0.32909        1.28544
H          2.15015       -1.30772       -0.76554
H          2.75349       -1.86882        0.63628
H          0.76815        1.24667       -0.27034
H          1.54748        1.99368        0.96237
C          2.79580        1.30538       -0.51486
C          3.32189        0.07470        0.23222
N          1.53936        1.86644       -0.04465
N          2.36379       -1.04093        0.19435
N         -2.47218        1.72781       -0.50298
H         -2.76755        2.36859       -1.23282
C         -1.89505        2.45004        0.64299
H         -2.59583        3.15809        1.09667
H         -1.59345        1.71644        1.39407
H         -1.00331        2.98641        0.30996
H         -3.28232        1.18454       -0.21366
