26
1sa1ma1eda_110.log	Energy: -619045.3286067
S         -0.74638       -0.96013        0.00123
O         -0.84441       -0.35310        1.35077
O         -0.17075        0.07601       -0.94499
O         -0.03092       -2.22867       -0.05705
O         -2.21336       -1.25257       -0.52049
H         -2.78381       -0.41927       -0.43940
H          3.17332       -0.00354        1.69048
H          1.98895       -1.07495        0.88997
H          4.11355       -0.95387       -0.43412
H          2.72502       -0.31706       -1.31987
H          4.88295        1.25951       -0.13015
H          4.19367        1.40078       -1.60462
H          0.99644        1.03576        1.54545
H          2.09851        1.84003        0.52182
C          2.55464       -0.14496        0.79943
C          3.39119       -0.12962       -0.47234
N          1.58503        0.97724        0.71284
N          4.00394        1.19280       -0.63186
H          0.87626        0.74846       -0.08814
N         -3.70497        0.97447       -0.28185
H         -4.20899        1.16990       -1.14095
C         -2.80720        2.08414        0.06620
H         -3.32516        3.04248        0.19620
H         -2.28166        1.82276        0.98700
H         -2.05484        2.18138       -0.71952
H         -4.39645        0.82749        0.44660
