26
1sa1ma1eda_111.log	Energy: -619044.6271132
S         -1.83326       -0.09477        0.00757
O         -2.09705        0.98820        0.94739
O         -0.81161        0.15788       -1.02146
O         -1.59259       -1.41618        0.66687
O         -3.20172       -0.28973       -0.85678
H         -3.94262       -0.09230       -0.26884
H          1.16776       -0.24691        1.08286
H          1.72868       -1.74062        1.85891
H          3.62089       -0.27476        1.03059
H          3.63899       -1.87235        0.27290
H          2.53961        0.57176       -0.94923
H          3.78574       -0.37520       -1.51760
H         -0.16066       -1.89791        0.21665
H          0.98060       -1.46846       -0.96470
C          1.69498       -1.18893        0.91816
C          3.07988       -0.93007        0.33233
N          0.87194       -1.94745       -0.05859
N          2.91183       -0.38695       -1.00646
H          1.18541       -2.91048       -0.15977
N          1.34786        2.17515       -0.58453
H          1.54249        2.89530       -1.27285
C          1.10819        2.78875        0.72384
H          0.33083        3.56332        0.71786
H          0.78068        2.02092        1.43023
H          2.03549        3.22730        1.10546
H          0.50227        1.69156       -0.89057
