29
1sa1dma1eda_99.log	Energy: -643704.1403539
S          1.87836       -0.58256       -0.22373
O          3.03071       -1.27652       -0.77111
O          0.67082       -0.48206       -1.04990
O          1.35633       -1.50663        1.04055
O          2.22026        0.73280        0.40355
H          2.12732       -1.97230        1.38950
H          1.06792        1.67268        0.70801
H         -0.68335        3.97678       -0.07473
H          0.52041        3.10512       -1.06333
H         -1.95344        2.50471       -1.56440
H         -0.88356        1.13855       -1.19657
H         -3.03287        2.11207        0.46130
H         -2.32139        0.59570        0.35344
H          0.72954        3.11757        1.53465
H         -0.50519        1.97379        1.38863
C         -0.26666        2.99491       -0.31576
C         -1.36700        2.02346       -0.77404
N          0.31419        2.41895        0.92453
N         -2.15486        1.61408        0.38480
N         -2.03149       -1.31146        0.02290
C         -2.89205       -1.84906       -1.01988
C         -2.06552       -2.09933        1.24649
H         -1.07282       -1.26522       -0.32171
H         -3.94228       -1.76029       -0.71814
H         -2.75348       -1.27669       -1.94125
H         -2.69272       -2.91068       -1.24074
H         -3.05511       -2.01961        1.71176
H         -1.85535       -3.16798        1.07598
H         -1.31976       -1.71482        1.94606
