26
1sa1ma1eda_82.log	Energy: -619048.2536216
S          1.69299       -0.34603        0.07413
O          0.84012       -0.36353       -1.13233
O          1.19135       -1.14508        1.18580
O          3.09384       -1.06372       -0.32377
O          2.06243        1.05411        0.43480
H          3.50214       -0.55179       -1.03441
H          0.63524        1.89718        0.46033
H         -3.24164       -1.44454        1.27543
H         -3.67820        0.26546        1.05511
H         -3.82617       -0.96603       -1.04010
H         -2.58983        0.28774       -1.15010
H         -2.09974       -2.14639       -1.92385
H         -0.92988       -1.40350       -1.05424
H         -1.70805        0.03079        2.39652
H         -0.91080       -0.75201        1.23002
C         -2.92211       -0.49541        0.82741
C         -2.83003       -0.68384       -0.68266
N         -1.63621       -0.04493        1.38507
N         -1.89108       -1.74111       -1.02015
N         -0.37467        2.19585        0.37239
H         -0.94813        1.35894        0.75945
C         -0.69176        2.46001       -1.04882
H         -1.75461        2.68102       -1.15604
H         -0.09707        3.30033       -1.40820
H         -0.42875        1.56119       -1.60808
H         -0.53709        3.01065        0.95913
