23
1sa1a1eda_60.log	Energy: -594386.8421258
S         -0.94092       -0.58464        0.22757
O         -2.12752       -1.23002        0.75519
O          0.19290       -1.38068       -0.19591
O         -1.34488        0.31352       -1.01684
O         -0.48728        0.47493        1.29430
H         -2.32930        0.58113       -0.93095
H          0.33319        1.03451        0.96283
H          2.30818       -0.47085        1.01162
H          3.88103        0.31602        0.77393
H          3.05218        1.61833       -1.07882
H          1.61121        0.60045       -1.23128
H          2.11599        2.26281        1.14056
H          1.12989        2.67706       -0.09256
H          4.07803       -1.75602       -0.24919
H          2.64078       -1.62664       -1.01490
C          3.00324       -0.08468        0.25174
C          2.31196        1.03864       -0.51557
N          3.44844       -1.09869       -0.69483
N          1.52346        1.88363        0.40571
N         -3.93080        0.75532       -0.63433
H         -4.03242        0.02658        0.07001
H         -4.53704        0.52986       -1.41600
H         -4.24169        1.63357       -0.23311
