26
1sa1ma1eda_68.log	Energy: -619046.1384805
S         -0.62744       -0.58525       -0.22110
O         -0.83664        0.85359       -0.38486
O          0.06691       -1.29240       -1.28168
O          0.10124       -0.84437        1.14091
O         -2.01554       -1.26405        0.02520
H         -2.68883       -0.55764        0.39996
H          4.15588       -0.63657       -0.61058
H          2.51466       -1.00899       -1.19991
H          3.07592        1.35038       -1.64085
H          1.72908        1.22290       -0.51050
H          4.47248        1.96544        0.17693
H          3.06892        2.69536        0.59132
H          2.99477       -1.79822        1.10104
H          3.06468       -0.21326        1.55754
C          3.08465       -0.44300       -0.45973
C          2.80325        1.04664       -0.62099
N          2.65623       -0.86514        0.88663
N          3.50388        1.79600        0.42596
H          1.16526       -0.84962        1.02243
N         -3.58976        0.63843        0.82030
H         -4.29041        0.45236        1.53057
C         -4.19170        1.20352       -0.39614
H         -4.72225        2.14498       -0.21608
H         -3.39368        1.37686       -1.12054
H         -4.88989        0.47784       -0.81880
H         -2.91490        1.29191        1.20952
