26
1sa1ma1eda_67.log	Energy: -619047.9091898
S         -0.78473       -0.75093        0.14225
O         -0.33587       -1.15703       -1.21174
O         -2.05723       -1.32326        0.56844
O          0.33391       -0.90259        1.12659
O         -0.97645        0.84944        0.08222
H         -1.90559        1.03235       -0.28077
H          2.90436        0.87557       -1.71732
H          1.45370        1.14078       -0.71377
H          3.45333        2.29381        0.27425
H          2.81350        1.03797        1.33801
H          5.26166        0.85374       -0.25351
H          5.02029        0.46595        1.31610
H          1.72504       -1.18287       -1.31706
H          3.20408       -1.20406       -0.44532
C          2.44892        0.69120       -0.74003
C          3.33003        1.20953        0.38871
N          2.28631       -0.77126       -0.56275
N          4.59047        0.46348        0.39918
H          1.64269       -0.93096        0.28760
N         -3.52722        1.01793       -0.72596
H         -3.86543        1.68171       -1.41444
C         -4.31565        1.07838        0.51141
H         -5.38660        0.89970        0.35557
H         -3.92522        0.32368        1.19685
H         -4.18681        2.06130        0.97162
H         -3.59486        0.08800       -1.13171
