29
1sa1dma1eda_28.log	Energy: -643709.1878205
S          1.82458        0.18589       -0.05891
O          1.52483       -0.89214       -1.04530
O          1.48446        1.52405       -0.53948
O          1.31473       -0.15369        1.28115
O          3.44457        0.22259        0.06184
H          3.72888       -0.59810        0.48553
H         -2.90027       -1.78036       -0.73959
H         -1.75412       -2.73372       -1.72029
H         -1.75781       -3.48311        0.61276
H         -0.17527       -2.83505        0.16487
H         -1.49200       -2.07466        2.34494
H         -0.48694       -1.05961        1.54867
H         -1.45028       -0.47404       -2.25799
H         -1.35693        0.10177       -0.67026
C         -1.84457       -2.00854       -0.90612
C         -1.21975       -2.56117        0.37056
N         -1.16483       -0.75532       -1.32242
N         -1.34557       -1.60382        1.46096
H         -0.11655       -0.87421       -1.32832
N         -1.43264        1.63698       -0.01362
C         -1.57882        1.70541        1.44165
C         -2.44144        2.41906       -0.72103
H         -0.49567        1.96637       -0.25605
H         -2.45656        1.13111        1.75079
H         -0.69430        1.26333        1.90280
H         -1.68305        2.74229        1.79330
H         -3.43333        1.99434       -0.53191
H         -2.45843        3.47323       -0.40880
H         -2.25045        2.38629       -1.79824
