18
1sa1a1ma_05.log	Energy: -534995.7409566
S         -0.40291       -0.48575       -0.04265
O          0.60079       -1.19997       -0.80792
O         -1.37726       -1.20650        0.75440
O          0.31833        0.53416        0.91251
O         -1.17197        0.44470       -1.06530
H          1.23654        0.81110        0.49143
H         -2.07659        0.70512       -0.66665
N          2.61381        1.01949       -0.19736
H          2.42118        0.86302       -1.18355
C          3.53258       -0.01436        0.30502
H          4.50087       -0.01228       -0.20679
H          3.69517        0.14260        1.37337
H          3.05600       -0.98647        0.16762
H          3.01640        1.94695       -0.10628
N         -3.49960        0.87449        0.13816
H         -3.58052        1.69773        0.72546
H         -3.43347        0.05761        0.74246
H         -4.34303        0.79575       -0.41985
