27
1sa1ma1tma_06.log	Energy: -608974.8389940
S         -2.00419       -0.16382        0.07620
O         -3.39230       -0.05994        0.49499
O         -0.96053        0.01612        1.09359
O         -1.78957       -1.73701       -0.36778
O         -1.68371        0.61912       -1.15703
H         -2.61939       -2.04096       -0.75733
H         -0.23764        1.25960       -0.99524
N          0.71873        1.67765       -0.77443
H          1.36105        0.86114       -0.49301
C          0.59724        2.64329        0.34047
H          1.57907        3.04989        0.58842
H         -0.07942        3.44916        0.05498
H          0.17728        2.10376        1.18923
H          1.08204        2.11815       -1.61627
N          2.30438       -0.45990       -0.00265
C          1.68595       -1.61386       -0.66108
H          0.64100       -1.69869       -0.35682
H          1.72285       -1.47971       -1.74655
H          2.20913       -2.54985       -0.40770
C          3.69712       -0.30674       -0.41086
H          3.75679       -0.18649       -1.49700
H          4.12811        0.58065        0.06256
H          4.30702       -1.18016       -0.12738
C          2.18851       -0.57406        1.45392
H          2.61688        0.31609        1.92503
H          1.13228       -0.64391        1.72132
H          2.72423       -1.45991        1.83132
