32
1sa1eda1tma_24.log	Energy: -668367.4658910
S          1.93015       -0.77756       -0.13227
O          1.76845       -2.22126       -0.24944
O          1.78406        0.03523       -1.34214
O          1.12620       -0.18985        0.99294
O          3.48689       -0.53693        0.31117
H          3.77406       -1.33263        0.77736
H         -3.87526       -2.25389        0.12191
H         -3.25462       -2.00855       -1.51525
H         -1.47265       -2.76749        0.01001
H         -1.12236       -1.18094       -0.65360
H         -2.07878       -1.70482        2.05662
H         -0.68765       -0.98893        1.57060
H         -4.59572       -0.13652       -0.88592
H         -3.66992        0.13029        0.43956
C         -3.22021       -1.61431       -0.49443
C         -1.79211       -1.71637        0.02609
N         -3.65489       -0.21575       -0.51550
N         -1.67680       -1.09592        1.34958
N         -0.20576        1.92182        0.07010
C         -0.91601        1.70824       -1.21822
H         -0.20875        1.25875       -1.91566
H         -1.77240        1.04688       -1.05543
H         -1.26413        2.67704       -1.58729
C         -1.13721        2.28431        1.16314
H         -1.81252        1.44020        1.31851
H         -0.56085        2.45630        2.07321
H         -1.68488        3.18891        0.88811
C          0.90831        2.88887       -0.07610
H          1.44875        2.94491        0.86941
H          1.57759        2.51679       -0.85224
H          0.50276        3.86816       -0.34119
H          0.25561        1.01350        0.36510
