29
1sa1dma1eda_45.log	Energy: -643708.3950250
S          1.29096       -1.19397       -0.00336
O          0.31945       -1.21779       -1.09946
O          2.55956       -0.50608       -0.28228
O          0.66869       -0.73498        1.27327
O          1.67212       -2.76003        0.22789
H          2.50813       -2.78580        0.71173
H         -0.75922        3.41069        0.03626
H         -0.52594        2.73974        1.67083
H          1.61727        3.69571        0.65895
H          1.73871        1.99019        1.10625
H          1.99756        3.05758       -1.49877
H          2.17097        1.48516       -0.99951
H         -1.75555        1.13386        0.10394
H         -0.32926        1.18921       -0.81371
C         -0.25540        2.63393        0.61777
C          1.26456        2.68961        0.40914
N         -0.71752        1.31865        0.13144
N          1.57624        2.31074       -0.96462
H         -0.28675        0.54809        0.70023
N         -3.20622        0.08288       -0.02400
C         -3.01062       -0.88958        1.05656
C         -3.05847       -0.53445       -1.34731
H         -4.13140        0.49259        0.05597
H         -1.98428       -1.26827        1.01881
H         -3.16052       -0.40093        2.02302
H         -3.69576       -1.74615        0.98274
H         -2.03993       -0.92380       -1.44680
H         -3.76214       -1.36439       -1.50484
H         -3.22367        0.21812       -2.12329
