29
1sa1dma1eda_29.log	Energy: -643706.9401820
S         -0.39337       -1.34408       -0.03180
O         -1.67249       -1.84850        0.44164
O          0.48858       -2.20002       -0.80387
O         -0.66071       -0.04781       -0.89240
O          0.38558       -0.79904        1.21595
H         -1.59050        0.36731       -0.59506
H          1.42574       -0.71412        0.98702
H          3.91223        0.02722       -1.18968
H          2.20117       -0.38457       -1.42151
H          2.48512        2.05534       -1.50136
H          1.53314        1.59110       -0.08804
H          4.34530        2.41686       -0.04874
H          3.09668        3.01512        0.81972
H          3.21121       -1.55837        0.46581
H          3.43420       -0.10017        1.21946
C          2.91091        0.09230       -0.74114
C          2.53513        1.55188       -0.52580
N          2.85750       -0.61027        0.55188
N          3.47611        2.16896        0.41252
N         -2.94177        0.78186       -0.04531
C         -3.78485        1.57349       -0.93868
C         -2.74181        1.39750        1.26862
H         -3.33757       -0.14732        0.08621
H         -3.29431        2.52999       -1.14028
H         -3.90919        1.04505       -1.88624
H         -4.77522        1.77514       -0.50820
H         -2.21670        2.34851        1.14055
H         -3.69107        1.58879        1.78654
H         -2.12312        0.73751        1.88035
