24
1sa1ma1dma_21.log	Energy: -584314.2414345
S         -0.30047       -0.65161        0.00934
O         -1.28801       -1.55015        0.60056
O          0.13284        0.46703        0.87210
O          0.90322       -1.36109       -0.55236
O         -0.96130       -0.00197       -1.29788
H         -1.93731        0.18087       -1.08529
N          2.95662        0.10229       -0.24860
C          3.23376        0.20002        1.20274
C          2.62501        1.40054       -0.88006
H          3.74745       -0.32469       -0.72744
H          2.32315        0.56383        1.68039
H          3.46530       -0.79531        1.58302
H          4.07110        0.87870        1.38049
H          1.72635        1.77920       -0.39131
H          3.45668        2.09939       -0.76545
H          2.41308        1.23087       -1.93598
H          2.07842       -0.57101       -0.39109
N         -3.45061        0.28542       -0.35963
H         -4.29261        0.32476       -0.92331
C         -3.43335        1.34378        0.65698
H         -4.27161        1.28820        1.36240
H         -2.49763        1.27189        1.21667
H         -3.45556        2.31796        0.16214
H         -3.40772       -0.62939        0.08553
