26
1sa1ma1eda_39.log	Energy: -619049.4181738
S         -0.51978       -0.52278       -0.23495
O          0.59123       -1.36926       -0.69843
O         -0.87672       -0.65639        1.18251
O         -0.24621        0.92107       -0.59587
O         -1.78280       -0.95303       -1.09348
H         -2.62125       -0.66974       -0.58547
H          4.00459        1.57300        0.00618
H          2.47970        2.27846        0.61753
H          3.41361        0.38246        2.04587
H          1.76402        0.10263        1.49158
H          3.94237       -1.54190        0.98072
H          2.44483       -1.63260        0.27343
H          2.54191        1.65759       -1.82981
H          2.54452        0.07093       -1.30256
C          2.94872        1.37928        0.21228
C          2.80486        0.18250        1.15905
N          2.27848        1.03785       -1.06858
N          3.23931       -1.02792        0.46864
H          1.18779        1.03754       -0.93990
N         -3.72536       -0.08236        0.49436
H         -4.65165       -0.49189        0.54473
C         -3.78554        1.37913        0.38083
H         -4.28280        1.86381        1.23005
H         -2.76551        1.76321        0.30224
H         -4.31584        1.64623       -0.53654
H         -3.20904       -0.35281        1.32929
