29
1sa1dma1eda_37.log	Energy: -643706.6255111
S          0.36762       -1.23214       -0.08594
O          1.62246       -1.72106       -0.63627
O         -0.39350       -2.06242        0.83080
O          0.65250        0.13889        0.64255
O         -0.55224       -0.82414       -1.28570
H          1.59082        0.51475        0.31457
H         -1.57236       -0.78033       -0.96976
H         -3.95294       -0.03430        1.32715
H         -2.21991       -0.39187        1.48477
H         -2.57993        2.04253        1.48588
H         -1.67238        1.54751        0.05473
H         -4.50202        2.30752        0.10157
H         -3.30713        2.87772       -0.85727
H         -3.28969       -1.66790       -0.29842
H         -3.60163       -0.24821       -1.09287
C         -2.97767        0.03853        0.82539
C         -2.65441        1.49794        0.53420
N         -2.97230       -0.71379       -0.44031
N         -3.65125        2.04930       -0.38726
N          2.97257        0.87569       -0.17475
C          3.93688        0.33240        0.78523
C          3.18420        2.28911       -0.47990
H          3.01308        0.31747       -1.02494
H          3.80178        0.83154        1.74889
H          3.74086       -0.73372        0.91259
H          4.97502        0.47558        0.45708
H          3.04487        2.87533        0.43276
H          4.19177        2.48692       -0.87007
H          2.44705        2.61716       -1.21603
