23
1sa1a1eda_30.log	Energy: -594389.1314868
S          1.98833       -0.34091        0.10420
O          3.31962       -0.87322        0.34026
O          1.45605       -0.53586       -1.26386
O          0.96371       -0.61576        1.13345
O          2.15790        1.31288        0.24499
H          3.05484        1.52874       -0.04026
H         -2.87754       -0.72480       -1.67592
H         -2.20349       -2.15100       -0.87230
H         -4.27649       -1.51171        0.24955
H         -2.90946       -1.26303        1.33656
H         -4.34868        0.86334       -0.07106
H         -4.04841        0.71520        1.53040
H         -0.43285       -0.54544       -1.22583
H         -1.26625        0.69235       -0.48781
C         -2.43238       -1.09009       -0.74566
C         -3.38683       -0.88914        0.42461
N         -1.17326       -0.35925       -0.52731
N         -3.67369        0.52874        0.60823
H         -0.67455       -0.61315        0.34945
N         -0.66485        2.39016       -0.32917
H         -0.74651        3.05290       -1.09274
H          0.32936        2.25735       -0.13245
H         -1.09348        2.80728        0.49053
