29
1sa1dma1eda_79.log	Energy: -643707.7376210
S         -0.17187        1.06413       -0.13344
O          0.21299        0.44255       -1.46100
O         -0.18898       -0.00457        0.89817
O          0.63614        2.23033        0.19417
O         -1.65575        1.57628       -0.31857
H         -2.30301        0.78185       -0.30800
H          4.10033       -1.38561       -0.70390
H          3.51381        0.12290       -1.46197
H          4.16287        0.27214        1.04910
H          2.57721        0.91702        0.62199
H          3.06357       -1.15013        2.42491
H          1.59312       -0.64068        1.84836
H          2.11184       -1.96176       -1.79373
H          1.75555       -1.80336       -0.16171
C          3.30953       -0.63041       -0.69876
C          3.16481       -0.00359        0.69665
N          2.02643       -1.30439       -1.02360
N          2.52298       -0.96752        1.59097
H          1.22668       -0.56382       -1.24685
N         -3.28678       -0.50303       -0.15433
C         -3.46912       -0.68698        1.28727
C         -2.64580       -1.65322       -0.79264
H         -4.18367       -0.32372       -0.59536
H         -2.48067       -0.74689        1.75043
H         -3.98693        0.18120        1.70107
H         -4.03964       -1.59619        1.52717
H         -1.65721       -1.78093       -0.34388
H         -3.22025       -2.58231       -0.66290
H         -2.51383       -1.45288       -1.85824
