26
1sa1ma1eda_105.log	Energy: -619045.5194543
S          1.65503       -0.14353        0.01511
O          1.74767        1.15448       -0.66014
O          0.88809       -0.18436        1.25850
O          1.26111       -1.24392       -0.92054
O          3.17447       -0.51048        0.47372
H          3.76877       -0.20633       -0.22479
H         -2.67104       -2.64070        0.66722
H         -1.07733       -2.23587        1.37529
H         -2.94536       -0.42287        1.62601
H         -1.36628        0.09348        1.02101
H         -3.82981        0.08349       -0.44870
H         -2.38522        0.88925       -0.72443
H         -1.23386       -3.02856       -1.09598
H         -1.78985       -1.44242       -1.31157
C         -1.81644       -1.95979        0.62260
C         -2.25553       -0.49270        0.77865
N         -1.20873       -2.08150       -0.72876
N         -2.82280       -0.01018       -0.47784
H         -0.19057       -1.73195       -0.76256
N         -1.03575        2.36256       -0.76156
H         -0.12118        2.01882       -1.05523
C         -0.89910        2.94742        0.57672
H         -0.31844        3.87909        0.59671
H         -1.88922        3.14814        1.00000
H         -0.38934        2.22762        1.22196
H         -1.31521        3.07383       -1.42960
