26
1sa1ma1eda_30.log	Energy: -619048.5724435
S          0.90413        1.24754        0.01261
O          0.58201        0.43320        1.21058
O          1.25093        0.40371       -1.14459
O         -0.08760        2.28933       -0.28618
O          2.25806        2.02494        0.47122
H          2.38165        2.77101       -0.13061
H         -3.06192       -1.93798       -0.21828
H         -2.38886       -1.81235        1.42865
H         -4.00590        0.09155        0.81312
H         -2.40345        0.62869        1.32704
H         -3.58907        1.12200       -1.16629
H         -2.05275        1.52290       -0.69144
H         -0.54660       -2.14287       -0.34827
H         -1.14217       -0.71751       -0.98986
C         -2.43701       -1.33687        0.44678
C         -2.94902        0.11009        0.53036
N         -1.07772       -1.27080       -0.12417
N         -2.73687        0.77045       -0.75363
H         -0.44335       -0.71779        0.50440
N          1.22152       -2.67352       -0.76236
H          1.47145       -3.42299       -1.39878
C          1.97029       -2.79047        0.49690
H          3.05728       -2.83255        0.35695
H          1.74675       -1.91962        1.11930
H          1.65450       -3.69134        1.03089
H          1.47512       -1.79064       -1.20984
