29
1sa1dma1eda_26.log	Energy: -643708.7345390
S          2.26954       -0.34083       -0.15729
O          1.53655       -1.37098       -0.94054
O          3.66896       -0.64836        0.08954
O          1.93717        1.02243       -0.58341
O          1.54642       -0.43011        1.35215
H          2.16371       -0.91248        1.91618
H         -1.32078       -2.53608        0.29866
H         -0.87004       -1.12419        1.26159
H         -3.28601       -1.69921        1.61118
H         -3.11794       -0.11533        0.84789
H         -3.89036       -2.58113       -0.53068
H         -4.66118       -1.14032       -0.50954
H         -0.07378       -1.03439       -1.01944
H         -1.71789       -0.96620       -1.53797
C         -1.50195       -1.46657        0.43986
C         -2.97831       -1.18992        0.68795
N         -1.06425       -0.75761       -0.78147
N         -3.74748       -1.57705       -0.49489
H         -1.04895        0.30484       -0.58968
N         -0.78122        1.90040       -0.11556
C         -0.87359        2.06783        1.33282
C         -1.51482        2.91602       -0.86107
H          0.20917        1.90523       -0.37411
H         -1.90308        1.88579        1.66455
H         -0.20689        1.34837        1.81446
H         -0.58827        3.07903        1.65759
H         -2.58815        2.81565       -0.66397
H         -1.21392        3.93966       -0.59378
H         -1.34847        2.77578       -1.93216
