29
1sa1dma1eda_58.log	Energy: -643709.3124439
S         -0.35899       -1.52907       -0.04823
O          0.31336       -2.68559       -0.61476
O         -1.70982       -1.72687        0.50794
O          0.50048       -1.01521        1.21547
O         -0.34962       -0.33894       -0.98717
H          1.42368       -0.80251        0.86382
H         -1.61204        0.53061       -0.58539
H          2.34883        1.78440       -1.56127
H          3.02725        2.91047       -0.39549
H          4.40435        0.92202       -0.50145
H          3.67122        1.05888        1.10305
H          2.54499       -0.68089       -0.98732
H          3.51644       -1.19453        0.21707
H          0.66420        1.20911       -0.10515
H          1.30203        2.03810        1.15542
C          2.51273        1.94694       -0.48918
C          3.45245        0.86084        0.04665
N          1.20342        2.03597        0.14405
N          2.84678       -0.47467       -0.03655
N         -2.47386        0.83954       -0.03048
C         -3.46734        1.51022       -0.88564
C         -2.00623        1.62595        1.13280
H         -2.79021       -0.08636        0.29656
H         -3.03141        2.42882       -1.28083
H         -3.72757        0.84581       -1.70974
H         -4.36046        1.74662       -0.30415
H         -1.46084        2.49982        0.77167
H         -2.86090        1.92656        1.74162
H         -1.33501        0.99160        1.71437
