24
1sa1a1tma_08.log	Energy: -584316.5603016
S          1.65891       -0.03038        0.10404
O          3.00057       -0.13109        0.64850
O          0.56597        0.05638        1.11254
O          1.46372        0.91198       -1.00512
O          1.31922       -1.52797       -0.55121
H          2.09501       -1.80403       -1.05598
N         -0.79183        2.69453        0.02650
H         -0.91274        3.66328       -0.25154
H          0.00808        2.32240       -0.48928
H         -0.49782        2.69868        0.99939
N         -1.79771       -0.44603        0.05189
C         -1.75568       -0.17794       -1.40799
H         -1.69679        0.90076       -1.54754
H         -0.86255       -0.64886       -1.81869
H         -2.65838       -0.58639       -1.86947
C         -1.81437       -1.90008        0.34252
H         -0.92247       -2.34555       -0.09855
H         -1.78631       -2.04117        1.42322
H         -2.72238       -2.34201       -0.07457
C         -2.91016        0.27769        0.70987
H         -2.86150        0.09151        1.78361
H         -2.77089        1.34126        0.50919
H         -3.86060       -0.08475        0.30988
H         -0.88105       -0.09087        0.46298
