23
1sa1a1eda_01.log	Energy: -594394.0634728
S         -1.65218       -0.39995       -0.10104
O         -3.03610       -0.69072       -0.44068
O         -0.69960       -0.48945       -1.24371
O         -1.38636        0.79439        0.71659
O         -1.18128       -1.62964        0.90028
H         -1.81614       -2.34589        0.77339
H          2.61460        0.85984        1.23237
H          0.94681        0.24644        1.38108
H          2.58900       -1.64690        1.39070
H          1.50871       -1.71074       -0.00333
H          4.33003       -0.94004       -0.04436
H          3.50966       -1.91771       -1.06617
H          1.15249        1.90703       -0.37808
H          2.26423        0.83960       -1.16924
C          1.83729        0.25942        0.74974
C          2.33207       -1.14918        0.44739
N          1.47140        0.91528       -0.52862
N          3.43911       -1.07479       -0.50965
H          0.64553        0.39469       -0.93845
N          0.06298        3.27344        0.07511
H         -0.27600        3.87241       -0.67094
H          0.25886        3.86773        0.87393
H         -0.69671        2.63710        0.33532
