23
1sa1a1eda_08.log	Energy: -594391.6172903
S          2.02775       -0.26717       -0.12432
O          1.08444       -1.09964       -0.91988
O          3.33660       -0.86477        0.08503
O          1.97846        1.14589       -0.51574
O          1.32131       -0.24993        1.39105
H          1.88273       -0.79683        1.95438
H         -1.76960       -1.74489        0.36254
H         -1.23734       -0.37757        1.34376
H         -3.71188       -0.75321        1.59768
H         -3.37967        0.81744        0.86001
H         -4.29487       -1.56358       -0.58018
H         -4.94609       -0.06404       -0.57133
H         -0.39508       -0.43448       -0.95932
H         -2.01313       -0.09831       -1.46310
C         -1.86815       -0.66459        0.50040
C         -3.32448       -0.26363        0.69425
N         -1.32991       -0.00256       -0.70839
N         -4.07295       -0.57495       -0.52377
H         -1.15326        1.02092       -0.50111
N         -0.49298        2.56249        0.07809
H         -0.58154        2.79351        1.06262
H         -0.66794        3.41146       -0.44971
H          0.48377        2.28639       -0.08023
