23
1sa1a1eda_59.log	Energy: -594386.6743455
S          2.00040       -0.17742       -0.00201
O          3.43422       -0.41596        0.00337
O          1.40969        0.42792       -1.20664
O          1.30804       -1.67389        0.02440
O          1.48277        0.49073        1.23052
H          1.94552       -2.27036        0.43714
H          0.47641        1.68307        0.77321
H         -1.90081       -1.71557       -0.34365
H         -1.04394       -0.71407        0.82186
H         -3.34806       -1.10938        1.58197
H         -3.11714        0.60784        1.22892
H         -4.48775       -1.29036       -0.53430
H         -5.10114        0.05685        0.15588
H         -0.75898        0.01749       -1.49029
H         -2.38010        0.39874       -1.53745
C         -1.85725       -0.70717        0.09038
C         -3.18066       -0.38606        0.77067
N         -1.56541        0.30454       -0.93458
N         -4.25521       -0.35232       -0.22301
N         -0.18047        2.30003        0.21057
H          0.38188        2.71896       -0.52754
H         -0.62508        3.01559        0.77666
H         -0.88980        1.60314       -0.26048
