29
1sa1dma1eda_104.log	Energy: -643703.0069275
S          1.79197       -0.75256       -0.11789
O          2.36179        0.50013       -0.61343
O          1.31935       -0.74803        1.27706
O          0.77393       -1.34014       -1.03594
O          3.02422       -1.81893       -0.08884
H          3.59535       -1.62051       -0.84256
H         -2.55167        0.02024        1.49638
H         -1.42543        0.65655        0.25459
H         -3.76611        0.46934       -0.64115
H         -2.64805       -0.58965       -1.50140
H         -4.63718       -1.44682        0.46635
H         -4.33083       -2.05796       -1.01810
H         -0.58501       -1.34006        1.42039
H         -1.89328       -2.21653        0.74453
C         -2.08929       -0.17882        0.52474
C         -3.14668       -0.43056       -0.53988
N         -1.26955       -1.41005        0.65624
N         -3.89900       -1.64220       -0.20170
H         -0.62826       -1.51858       -0.17774
N         -0.07321        2.30172       -0.12374
C          0.26230        2.63358        1.25362
C         -0.49891        3.45645       -0.89568
H          0.74271        1.87357       -0.55714
H         -0.64353        2.94551        1.78950
H          0.67473        1.74850        1.74519
H          0.99955        3.44968        1.33690
H         -1.43833        3.84945       -0.48773
H          0.23536        4.28050       -0.89114
H         -0.67800        3.16325       -1.93396
