26
1sa1ma1eda_131.log	Energy: -619042.6234968
S          1.62298       -0.44495       -0.09001
O          2.28042        0.84948        0.10123
O          0.68119       -0.55435       -1.20342
O          2.81335       -1.48930       -0.47836
O          1.04239       -0.98207        1.18138
H          3.60593       -1.21020       -0.00161
H         -0.48485       -1.05016        1.21111
H         -3.22936        0.16579        1.29866
H         -1.65353        0.98423        0.99498
H         -3.04259        0.66799       -1.11514
H         -1.44531       -0.10012       -1.17043
H         -4.00380       -1.47529       -0.96291
H         -2.64505       -1.88794       -1.78355
H         -1.72108       -1.23081        2.34308
H         -1.92747       -1.91339        0.82627
C         -2.25894        0.08929        0.79821
C         -2.43138       -0.14278       -0.70235
N         -1.55470       -1.10473        1.34807
N         -2.99109       -1.47993       -0.92385
N         -0.16147        2.59619        0.70601
H         -0.20234        3.44841        1.25476
C         -0.36064        2.88847       -0.71481
H          0.29103        3.68029       -1.10917
H         -0.15760        1.98042       -1.28864
H         -1.40177        3.18182       -0.89217
H          0.76794        2.19749        0.83049
