29
1sa1dma1eda_47.log	Energy: -643708.1814459
S          1.82952       -0.32538       -0.04995
O          1.73975        0.52902       -1.24411
O          1.68292        0.36386        1.23405
O          0.94341       -1.52104       -0.14059
O          3.34999       -0.90019       -0.01847
H          3.57116       -1.19819       -0.91083
H         -2.65757       -1.76191        1.71067
H         -3.24748       -0.14750        1.22820
H         -3.72381       -1.71677       -0.54706
H         -2.47249       -0.60883       -1.11260
H         -2.16217       -3.13551       -1.45071
H         -0.86826       -2.37847       -0.78265
H         -0.95498       -0.14365        2.18238
H         -0.41046       -0.99964        0.87440
C         -2.51811       -0.93361        1.01275
C         -2.67301       -1.44077       -0.41699
N         -1.16469       -0.36090        1.21034
N         -1.84825       -2.61683       -0.64010
H         -1.03985        0.55282        0.62729
N         -0.75308        1.91571       -0.27874
C         -0.29244        2.94505        0.65545
C         -1.82457        2.37809       -1.15516
H          0.04768        1.61533       -0.84151
H         -1.09628        3.18937        1.35955
H          0.56489        2.55380        1.20747
H          0.00435        3.87029        0.14231
H         -2.72280        2.58973       -0.56458
H         -1.55543        3.29292       -1.70244
H         -2.06652        1.60073       -1.88465
