29
1sa1dma1eda_85.log	Energy: -643706.4693051
S          2.24262       -0.31934       -0.00775
O          2.18655        0.44884        1.24466
O          0.89039       -0.85962       -0.34677
O          2.92985        0.32997       -1.11986
O          3.08085       -1.68735        0.30355
H          4.01123       -1.49197        0.13169
H         -1.79375        2.29501        1.04556
H         -0.09334        2.41515        1.56768
H         -0.57144        3.15146       -0.80615
H          0.76056        2.01717       -0.60523
H         -1.06845        1.63462       -2.39841
H         -0.43539        0.37317       -1.58528
H         -1.74192        0.02780        0.96299
H         -0.06699       -0.07965        0.75340
C         -0.78346        1.90369        0.89464
C         -0.32930        2.11557       -0.55058
N         -0.81410        0.45993        1.26472
N         -1.01243        1.20866       -1.48042
H         -0.65790        0.32884        2.26060
N         -3.00779       -0.59362       -0.02897
C         -4.43063       -0.53578        0.28161
C         -2.55695       -1.92317       -0.44099
H         -2.77031        0.07398       -0.76696
H         -4.64240       -1.15555        1.15887
H         -4.71407        0.49391        0.51536
H         -5.06240       -0.89225       -0.54598
H         -2.70392       -2.63069        0.38142
H         -3.10152       -2.30124       -1.31841
H         -1.48879       -1.89183       -0.67528
