23
1sa1a1eda_70.log	Energy: -594385.0679307
S          1.73846       -0.23504       -0.24829
O          2.98244       -0.98051       -0.24584
O          0.66526       -0.75046       -1.11065
O          1.11788       -0.40804        1.30813
O          1.85984        1.24295       -0.30973
H          1.42636       -1.25839        1.64740
H          0.59516        1.95151        0.42018
H         -1.88731       -1.84445       -0.52345
H         -3.49206       -1.81929        0.19823
H         -3.44292       -0.32391       -1.68109
H         -3.68343        0.61427       -0.20048
H         -0.99038        0.26528       -1.34473
H         -1.98527        1.48785       -1.81231
H         -0.99241       -0.72432        1.28800
H         -2.48905       -0.35299        1.93399
C         -2.57831       -1.22874        0.06168
C         -2.95400        0.01058       -0.75609
N         -1.96598       -1.00142        1.35746
N         -1.77978        0.85231       -1.04655
N         -0.35673        2.12517        0.85746
H         -1.06910        1.64849        0.15796
H         -0.53778        3.11604        0.98642
H         -0.35924        1.64555        1.75509
