27
1sa1ma1tma_07.log	Energy: -608973.5039350
S         -1.81768        0.15355        0.15007
O         -3.03058        0.46124        0.88827
O         -1.79022       -1.12150       -0.57956
O         -1.68122        1.33228       -0.99726
O         -0.54163        0.36098        0.90336
H         -2.57747        1.59145       -1.24698
H          0.55109       -0.66340        0.37039
N          1.66688        1.95000       -0.45297
H          1.43989        2.41914       -1.32386
C          2.46048        2.83298        0.40120
H          1.98495        3.79882        0.62147
H          2.64994        2.33416        1.35693
H          3.42990        3.02852       -0.06748
H          0.77487        1.73978       -0.00640
N          1.25394       -1.38837        0.03042
C          2.55756       -1.05678        0.65024
H          2.83350       -0.05450        0.31716
H          2.44506       -1.07563        1.73515
H          3.30302       -1.79251        0.33842
C          0.73599       -2.70822        0.46325
H          0.65934       -2.71411        1.55125
H         -0.25606       -2.83840        0.03018
H          1.42193       -3.49053        0.12930
C          1.30807       -1.27169       -1.44910
H          0.30166       -1.43194       -1.83646
H          1.64791       -0.26211       -1.68477
H          2.00417       -2.01872       -1.83941
