23
1sa1a1eda_62.log	Energy: -594385.2631087
S          0.91833       -0.04086        0.34442
O         -0.03341       -0.52990        1.32355
O          1.12237       -0.82752       -0.86727
O          0.54530        1.43650       -0.05528
O          2.29892        0.18731        1.04593
H         -0.47198        1.53929       -0.24889
H          3.06335        0.03909        0.36999
H         -1.61599       -0.73590       -1.03184
H         -3.24989       -0.45778       -1.62076
H         -3.81630        0.88798        0.34435
H         -2.29204        0.43176        1.14044
H         -2.30386        1.89634       -1.40525
H         -2.24475        2.64074        0.04591
H         -2.43600       -2.08116        0.67778
H         -4.01044       -1.76551        0.31595
C         -2.65401       -0.60521       -0.70993
C         -2.75883        0.64176        0.17458
N         -3.07606       -1.83888       -0.07169
N         -2.02681        1.77192       -0.43426
N          4.09046       -0.32926       -0.80494
H          4.80989       -1.00066       -0.55812
H          4.53081        0.45510       -1.27399
H          3.44235       -0.77258       -1.45348
