26
1sa1ma1eda_129.log	Energy: -619042.6571025
S         -1.81379       -0.81444       -0.01126
O         -1.25511       -0.33143       -1.28978
O         -2.94802       -1.71988       -0.08207
O         -0.73028       -1.24034        0.91741
O         -2.41186        0.57028        0.66331
H          0.75252       -0.97284        0.17600
H         -3.19215        0.31911        1.17387
H          2.71194        0.79905       -1.22591
H          1.67908        1.21068        0.17733
H          4.05344        0.70792        0.88389
H          2.91210       -0.45552        1.55936
H          4.74246       -0.95903       -0.66635
H          4.46598       -1.86821        0.66448
H          0.65433       -0.45612       -1.33192
H          1.93239       -1.50593       -0.92151
C          2.28203        0.42214       -0.29273
C          3.37147       -0.11245        0.62669
N          1.37342       -0.69884       -0.63187
N          4.02636       -1.25636       -0.01218
N         -0.00572        2.49996        0.69536
H         -0.75178        1.92848        1.08489
C         -0.41126        2.97430       -0.63024
H         -1.26899        3.66067       -0.62149
H          0.42975        3.48562       -1.11156
H         -0.68708        2.11026       -1.24065
H          0.13693        3.28065        1.32736
