26
1sa1ma1eda_74.log	Energy: -619048.2462590
S         -0.49744        0.58368        0.28901
O         -0.51831        0.38865       -1.17985
O         -0.44894       -0.69047        1.02803
O          0.60116        1.51958        0.68937
O         -1.82227        1.35259        0.69905
H         -2.59682        0.87496        0.24159
H          4.25568       -0.28412       -0.90474
H          3.98842        0.88980        0.41430
H          3.68860       -1.53986        1.13867
H          2.26042       -0.53283        1.41104
H          2.42154       -2.77350       -0.31637
H          1.10240       -1.85956        0.11356
H          2.75683        1.40411       -1.70401
H          1.88876       -0.00556       -1.44112
C          3.51937        0.12373       -0.20679
C          2.88556       -0.98917        0.63741
N          2.43081        0.75280       -0.99541
N          2.06389       -1.83316       -0.22188
H          1.71883        1.23034       -0.33519
N         -3.54639       -0.12089       -0.69837
H         -4.41853        0.24254       -1.06691
C         -3.73910       -1.41788       -0.03792
H         -4.11668       -2.19768       -0.71088
H         -2.78221       -1.73805        0.38110
H         -4.44389       -1.29692        0.78821
H         -2.89051       -0.20685       -1.47267
