29
1sa1dma1eda_59.log	Energy: -643707.8678606
S         -0.46249        0.85917       -0.20993
O         -0.16582        1.01423        1.23454
O         -1.67150        1.53204       -0.67126
O          0.76397        1.15311       -1.02252
O         -0.66521       -0.71867       -0.45267
H         -1.62434       -0.96857       -0.19530
H          3.02205       -1.19100        1.66035
H          1.58603       -1.19229        0.59931
H          3.52782       -2.28230       -0.54703
H          3.00443       -0.81344       -1.37589
H          5.41429       -1.09685        0.25978
H          5.24367       -0.41209       -1.21485
H          1.95856        0.97872        1.57596
H          3.47464        1.05221        0.78455
C          2.60430       -0.81622        0.72123
C          3.48184       -1.18897       -0.46578
N          2.53038        0.66308        0.78751
N          4.79002       -0.54591       -0.31944
H          1.94659        0.99458       -0.06420
N         -3.19777       -1.23938        0.16365
C         -3.95896       -0.84035       -1.02347
C         -3.54059       -0.43986        1.34394
H         -3.36766       -2.22100        0.36117
H         -3.68232        0.18611       -1.27682
H         -3.68766       -1.48617       -1.86218
H         -5.04560       -0.89558       -0.86296
H         -3.29169        0.60413        1.13962
H         -4.60781       -0.51125        1.59996
H         -2.94075       -0.76987        2.19511
