29
1sa1dma1eda_112.log	Energy: -643699.9037049
S         -1.38687        1.06811        0.03484
O         -0.43946        1.94677       -0.65089
O         -0.90833        0.39818        1.24413
O         -2.58721        2.03197        0.56396
O         -2.05696        0.10533       -0.89893
H         -2.69970        2.73832       -0.08576
H         -1.59445       -1.32209       -0.67775
H          3.80027        0.22098        1.41691
H          3.85556       -1.25935        0.43240
H          4.27214        0.66249       -0.94816
H          2.72835       -0.06030       -1.42213
H          2.92361        2.48576       -1.05665
H          1.62083        1.78068       -0.38770
H          1.97428       -1.25811        1.92899
H          1.33196        0.04659        1.21700
C          3.27532       -0.35083        0.63761
C          3.23780        0.50606       -0.62246
N          1.92780       -0.76220        1.04390
N          2.63827        1.80851       -0.35974
N         -1.21432       -2.33011       -0.58505
C         -1.21080       -2.71590        0.84678
C          0.13121       -2.36833       -1.21480
H         -1.85852       -2.92468       -1.10438
H         -0.60608       -1.98303        1.37944
H         -2.23261       -2.67734        1.22437
H         -0.79777       -3.72066        0.95505
H          0.81311       -1.78384       -0.58303
H          0.47384       -3.40344       -1.27856
H          0.05740       -1.92904       -2.21013
