26
1sa1ma1eda_52.log	Energy: -619048.3553654
S          0.91083       -1.00463       -0.10256
O          2.27023       -1.29173       -0.54894
O          0.15417       -0.14237       -1.08755
O          0.07572       -2.14116        0.31410
O          1.02387       -0.09641        1.22310
H          1.82386        0.51620        1.10966
H         -3.31650       -0.64432        1.31819
H         -1.58075       -0.24295        1.40208
H         -2.97583        1.83988        1.39736
H         -1.93545        1.73171       -0.02638
H         -4.82798        1.29012        0.02360
H         -3.93850        2.17535       -1.02378
H         -2.04606       -1.86841       -0.31746
H         -3.02791       -0.71944       -1.10971
C         -2.48554       -0.16025        0.79669
C         -2.80854        1.28954        0.46302
N         -2.24095       -0.87835       -0.47780
N         -3.94050        1.33031       -0.46589
H         -1.30598       -0.50670       -0.89502
N          3.21142        1.30109        0.55596
H          3.86387        1.72820        1.20417
C          2.86138        2.21550       -0.53693
H          3.72592        2.54406       -1.12710
H          2.15604        1.70794       -1.19934
H          2.36522        3.09748       -0.12333
H          3.64118        0.45804        0.17964
