26
1sa1ma1eda_05.log	Energy: -619050.5548745
S         -1.19674       -1.07238        0.01360
O         -0.41188       -2.21960        0.47546
O         -1.51536       -0.10104        1.07770
O         -0.65990       -0.41719       -1.20583
O         -2.61809       -1.66160       -0.52511
H         -2.94070       -2.28585        0.13820
H          2.55688        0.97703        1.44701
H          1.09330       -0.03771        1.45900
H          3.13343       -1.43611        1.09499
H          2.02874       -1.49909       -0.27353
H          4.59157       -0.09132       -0.18136
H          3.95640       -1.00676       -1.37645
H          0.77053        1.92644        0.08872
H          2.12094        1.39133       -0.89389
C          1.92410        0.31719        0.84570
C          2.71934       -0.84617        0.26819
N          1.36061        1.11618       -0.26989
N          3.72932       -0.32862       -0.65956
H          0.67369        0.52104       -0.79881
N         -0.70463        2.70206        0.61616
H         -1.11812        1.87823        1.06147
C         -1.47948        3.00925       -0.59459
H         -2.52690        3.25759       -0.38770
H         -1.02002        3.84766       -1.12612
H         -1.46625        2.13072       -1.24567
H         -0.74459        3.47144        1.27613
