29
1sa1dma1eda_69.log	Energy: -643705.6057266
S          0.42334       -0.86037        0.07243
O         -0.29311       -2.05632       -0.36561
O          0.88966        0.01433       -1.04653
O         -0.61651        0.02279        0.90873
O          1.54768       -1.11087        1.01843
H         -1.56244       -0.33690        0.73236
H          2.87740       -0.15760        0.59291
H         -4.37462        1.13122        1.03307
H         -4.92966        1.65527       -0.56087
H         -4.81938       -0.69115       -0.72400
H         -3.35230       -0.11730       -1.53995
H         -3.49647       -1.28250        1.14778
H         -2.60605       -1.79767       -0.13353
H         -3.04560        2.97836        0.14671
H         -2.07036        1.66152        0.14392
C         -4.07970        1.21344       -0.02917
C         -3.85261       -0.19363       -0.57052
N         -2.91478        2.05891       -0.25828
N         -2.98465       -0.97196        0.32735
N          3.27056        0.54599       -0.08532
C          4.48353        0.03647       -0.74540
C          3.40310        1.86325        0.56135
H          2.43914        0.54095       -0.73816
H          5.28092       -0.07638       -0.00860
H          4.25477       -0.93196       -1.19049
H          4.79716        0.73418       -1.52387
H          4.17518        1.81821        1.33138
H          3.66862        2.61256       -0.18627
H          2.44478        2.11809        1.01467
