26
1sa1ma1eda_25.log	Energy: -619050.1010703
S          1.75294       -0.27386        0.02292
O          1.56108       -1.71217        0.22555
O          1.45890        0.58572        1.18529
O          3.35657       -0.06977       -0.18708
O          1.10896        0.23653       -1.21557
H          3.68380       -0.84609       -0.66011
H         -0.14315        1.51048       -0.78332
H         -3.93854       -1.33069       -0.26409
H         -3.28543       -0.16273       -1.42603
H         -2.04112       -2.33083       -1.45374
H         -0.99635       -0.97655       -1.04395
H         -1.86029       -3.07013        0.75660
H         -0.42831       -2.25619        0.66352
H         -3.67244        0.67953        0.91684
H         -2.41397       -0.28945        1.35116
C         -3.06826       -0.69983       -0.49620
C         -1.83056       -1.58288       -0.67686
N         -2.80702        0.26548        0.58505
N         -1.44012       -2.16097        0.60557
N         -0.61951        1.93443        0.03456
H         -1.50475        1.37061        0.22173
C         -0.86114        3.37953       -0.10333
H         -1.30379        3.76368        0.81622
H          0.08273        3.89127       -0.29194
H         -1.54454        3.55707       -0.93432
H          0.06128        1.69591        0.78121
