29
1sa1dma1eda_46.log	Energy: -643706.7004420
S         -0.33111       -0.94430       -0.08808
O         -1.31876       -1.67280       -0.86676
O          0.75275       -1.65770        0.55986
O          0.26085        0.16225       -1.03599
O         -1.07423       -0.11061        1.02433
H         -2.04928        0.11589        0.67125
H          3.58049        1.26326        1.69322
H          2.25770        0.06905        1.67955
H          4.32399       -0.95459        0.83491
H          3.08564       -0.88375       -0.41899
H          5.45615        0.82830       -0.24676
H          4.89214       -0.01866       -1.52607
H          1.67857        2.27343        0.69168
H          2.74088        1.93072       -0.52331
C          2.92446        0.66094        1.04855
C          3.76239       -0.27167        0.18330
N          2.11255        1.51964        0.16779
N          4.61124        0.51741       -0.71418
H          1.01950        0.71114       -0.54847
N         -3.39741        0.30520        0.00314
C         -3.25229        1.29198       -1.06999
C         -4.51056        0.58427        0.90810
H         -3.50019       -0.61862       -0.41267
H         -3.01996        2.26544       -0.62872
H         -2.42278        0.99532       -1.71519
H         -4.16610        1.38880       -1.67121
H         -4.32929        1.53617        1.41528
H         -5.47265        0.65008        0.38196
H         -4.57054       -0.20133        1.66420
