29
1sa1dma1eda_31.log	Energy: -643708.3928476
S          1.88404       -0.49437       -0.16109
O          1.70921       -1.88812       -0.55685
O          1.43261       -0.13204        1.19167
O          3.49361       -0.23655       -0.09542
O          1.37320        0.47534       -1.17700
H          3.89737       -0.76081       -0.79945
H          0.19070        1.34571       -0.52487
H         -3.82994       -1.66386        0.60151
H         -3.11307       -2.71093       -0.60926
H         -1.61838       -2.62003        1.28370
H         -0.84033       -1.81455       -0.07417
H         -2.12846       -0.45870        2.18470
H         -0.53144       -0.49810        1.78544
H         -3.16559        0.21797       -0.67799
H         -2.43586       -0.72922       -1.80448
C         -3.00132       -1.74060       -0.11445
C         -1.67041       -1.73387        0.63579
N         -3.18120       -0.69603       -1.11522
N         -1.47932       -0.48993        1.40290
N         -0.62263        1.79536       -0.01357
C         -1.49901        2.48923       -0.97188
C         -0.08691        2.65936        1.05858
H         -1.11579        0.97421        0.44496
H         -0.96549        3.33682       -1.40542
H         -1.77473        1.79856       -1.76910
H         -2.39752        2.84649       -0.46369
H          0.47509        3.48174        0.61269
H         -0.91130        3.05480        1.65603
H          0.57893        2.05030        1.67072
