29
1sa1dma1eda_61.log	Energy: -643708.4050903
S         -0.33465       -1.24392       -0.23163
O         -1.67691       -1.77490        0.09555
O          0.63008       -2.18313       -0.78697
O         -0.46059        0.01984       -1.04292
O          0.22106       -0.74550        1.19272
H         -1.89572        0.71872       -0.52789
H          1.21728       -0.55937        1.08742
H          3.12768        0.80805       -1.59965
H          3.81491        2.26053       -0.87081
H          4.68828        0.39754        0.29364
H          3.57637        1.25608        1.38332
H          2.80223       -1.16173       -0.11963
H          3.26027       -1.14281        1.44495
H          1.61301        2.77350       -1.09430
H          1.05524        1.33326       -0.59053
C          3.10432        1.44495       -0.69797
C          3.63155        0.63790        0.48200
N          1.79017        2.02273       -0.43598
N          2.83773       -0.57651        0.71515
N         -2.75894        0.68748        0.08274
C         -3.96104        1.17398       -0.61425
C         -2.44977        1.35612        1.36599
H         -2.77876       -0.34406        0.23295
H         -3.84783        2.23841       -0.82590
H         -4.07308        0.62407       -1.54873
H         -4.83899        1.01633        0.01452
H         -2.29234        2.42060        1.18600
H         -3.27858        1.21199        2.06108
H         -1.53791        0.90760        1.76450
