26
1sa1ma1eda_128.log	Energy: -619042.7487709
S          2.08522        0.36747       -0.04022
O          3.13891        1.36359       -0.11969
O          0.70587        0.85846       -0.33967
O          2.33077       -0.91799       -0.71337
O          1.93484        0.00011        1.56402
H          2.81890        0.05217        1.94970
H         -0.86023       -3.13583       -0.10882
H          0.32943       -2.05155        0.66537
H         -1.97093       -1.95156        1.77836
H         -1.40431       -0.40115        1.15603
H         -3.59088       -1.96877        0.10234
H         -3.32869       -0.32589        0.11853
H          0.26453       -1.80840       -1.76571
H         -1.35897       -1.29484       -1.59989
C         -0.61341       -2.09499        0.11828
C         -1.75167       -1.39623        0.85880
N         -0.43154       -1.36964       -1.16535
N         -2.89796       -1.24300       -0.03443
H         -0.05393       -0.39467       -0.94191
N         -3.33737        1.70542        0.44250
H         -4.26141        2.10430        0.31218
C         -2.41055        2.20314       -0.58268
H         -2.37807        3.29735       -0.66360
H         -1.39935        1.85202       -0.36346
H         -2.70467        1.79697       -1.55514
H         -3.02642        1.99594        1.36393
