24
1sa1ma1dma_07.log	Energy: -584317.2561029
S         -1.74047       -0.03243        0.06370
O         -1.19041       -1.19271       -0.69526
O         -3.18358       -0.05330        0.22601
O         -0.91373        0.28274        1.23548
O         -1.43052        1.27077       -0.92584
H         -2.18378        1.36010       -1.52327
N          1.42186       -1.16547       -0.09824
C          2.30690       -1.73318       -1.12719
C          1.59531       -1.73630        1.25146
H          1.54916       -0.10546       -0.04669
H          2.12097       -2.80433       -1.22486
H          2.09873       -1.24400       -2.07948
H          3.35030       -1.56623       -0.85102
H          1.41106       -2.81173        1.21837
H          2.61229       -1.54621        1.60197
H          0.86734       -1.25761        1.90744
H          0.40817       -1.27566       -0.38227
N          1.44460        1.61263        0.07960
H          0.76406        1.86468       -0.63528
C          2.58423        2.53101        0.08015
H          2.30488        3.57865        0.24639
H          3.28920        2.23815        0.86282
H          3.10528        2.46466       -0.87872
H          0.91185        1.66459        0.94633
