23
1sa1a1eda_40.log	Energy: -594388.3960300
S         -1.69896       -0.23220       -0.16884
O         -3.05460       -0.42990       -0.65076
O         -0.74015        0.44340       -1.04902
O         -1.82262        0.82836        1.09184
O         -1.10147       -1.45883        0.44644
H         -2.69777        0.70273        1.48076
H          0.39846       -1.42870        0.68925
H          3.20332       -2.02233       -0.18700
H          1.69688       -2.10531       -1.14023
H          3.19685       -0.03745       -1.61578
H          1.50291        0.30137       -1.21663
H          3.79721        0.90856        0.42292
H          2.27945        1.60812        0.36208
H          1.62230       -2.31666        1.46067
H          1.80465       -0.64148        1.34530
C          2.24626       -1.53402       -0.39050
C          2.44940       -0.06983       -0.81580
N          1.46267       -1.50408        0.87157
N          2.80417        0.72361        0.35741
N          0.71183        2.83166        0.11840
H          0.23258        3.02257        0.99288
H          0.09234        2.21438       -0.40959
H          0.78013        3.70993       -0.38504
