26
1sa1ma1eda_16.log	Energy: -619049.5229622
S         -1.98090       -0.28544       -0.00114
O         -1.20556       -0.20945       -1.24410
O         -1.39927       -1.24514        0.97893
O         -2.31199        1.01005        0.60903
O         -3.39424       -0.94690       -0.46793
H         -4.01151       -0.86590        0.27113
H          1.66051       -2.31866       -0.26560
H          1.02004       -0.99781       -1.25451
H          3.49234       -1.28263       -1.63334
H          3.13973        0.28761       -0.90544
H          4.22457       -2.03057        0.51834
H          4.81528       -0.50887        0.45161
H          0.26648       -0.92874        1.04268
H          1.90021       -0.64838        1.51641
C          1.70745       -1.24015       -0.44172
C          3.13516       -0.79169       -0.71846
N          1.20853       -0.55248        0.77080
N          3.96055       -1.05224        0.46243
H          1.04638        0.48407        0.54556
N          0.48632        2.00198       -0.05838
H          0.21886        1.77152       -1.01351
C          1.27808        3.23127       -0.00222
H          0.77571        4.09733       -0.45006
H          1.50323        3.46912        1.04066
H          2.22921        3.08227       -0.52217
H         -0.41002        2.11077        0.41956
