24
1sa1ma1dma_27.log	Energy: -584308.6213254
S         -1.57064       -0.32941        0.00669
O         -2.72479       -1.20727        0.12284
O         -0.88800       -0.25686       -1.28916
O         -2.13999        1.19144        0.22249
O         -0.57266       -0.50718        1.11502
H         -2.93016        1.12530        0.77393
H          0.80602       -0.91712        0.60305
N          1.78120       -1.33327        0.39020
C          2.82131       -0.44783        0.96640
C          1.93786       -1.56005       -1.06780
H          1.78112       -2.23014        0.87500
H          2.75640        0.50154        0.42834
H          2.60841       -0.30023        2.02558
H          3.80457       -0.90505        0.83766
H          1.95067       -0.58375       -1.54967
H          2.87185       -2.09551       -1.25114
H          1.08042       -2.12507       -1.43068
N          1.34347        1.81960       -0.85965
H          1.65486        2.44261       -1.59773
C          0.96405        2.59381        0.32623
H          0.19926        3.35834        0.13820
H          0.56255        1.91046        1.07961
H          1.84969        3.08486        0.74378
H          0.52600        1.32328       -1.21533
