24
1sa1ma1dma_18.log	Energy: -584315.0572872
S         -1.71282       -0.20892        0.07536
O         -3.07935       -0.59088        0.38280
O         -0.82222        0.15626        1.18202
O         -0.98011       -1.60115       -0.47941
O         -1.58296        0.73986       -1.06840
H         -1.64041       -2.10375       -0.97298
H         -0.10502        1.41629       -0.99226
N          1.94424       -0.73330       -0.04913
C          2.30857       -0.66565        1.36711
C          2.98000       -1.34021       -0.87991
H          1.08025       -1.26946       -0.13539
H          3.14365        0.03175        1.49756
H          1.44448       -0.30734        1.92972
H          2.61378       -1.64265        1.76806
H          3.87629       -0.71061       -0.87029
H          3.26731       -2.34303       -0.53202
H          2.62485       -1.42012       -1.91073
N          0.89686        1.70134       -0.78912
H          1.39384        0.77132       -0.53782
C          0.94268        2.64365        0.35071
H          1.98063        2.85956        0.60852
H          0.42352        3.56656        0.09051
H          0.43406        2.16130        1.18541
H          1.30985        2.09722       -1.62984
