26
1sa1ma1eda_76.log	Energy: -619048.1954910
S          1.74843       -0.01434       -0.07619
O          1.01518       -0.94378       -0.94240
O          1.65721        1.40368       -0.45432
O          1.47667       -0.23738        1.37034
O          3.30325       -0.44400       -0.29653
H          3.85401        0.22206        0.13584
H         -0.48751       -2.07140        0.44545
H         -1.77761       -2.42744        1.60912
H         -2.62806       -2.79813       -0.57236
H         -3.43441       -1.35107        0.03820
H         -1.01797       -1.08747       -1.61844
H         -2.52922       -1.15124       -2.27958
H         -0.22458       -0.32235        1.70301
H         -1.35710        0.47331        0.74085
C         -1.45721       -1.73983        0.82283
C         -2.46928       -1.73993       -0.31389
N         -1.23204       -0.39678        1.43250
N         -2.00985       -0.92996       -1.43837
H         -1.82627       -0.24258        2.24267
N         -1.32064        1.72283       -0.21660
H         -0.32694        1.87875       -0.40840
C         -2.00757        2.97130        0.11130
H         -1.95061        3.71834       -0.68909
H         -3.06350        2.77037        0.31531
H         -1.56481        3.40538        1.01157
H         -1.71665        1.26273       -1.03608
