26
1sa1ma1eda_103.log	Energy: -619044.1680957
S          0.56835       -0.52856       -0.35233
O         -0.52212       -1.33851        0.15312
O          1.69503       -1.15687       -1.01492
O          0.01146        0.55647       -1.34910
O          1.09297        0.33624        0.86062
H         -0.78801        1.07999       -0.93681
H          2.06921        0.64834        0.66134
H         -2.71293       -0.46679       -0.94503
H         -4.29521        0.27162       -0.62648
H         -3.43662        1.50242        1.26576
H         -1.96359        0.51880        1.31164
H         -2.60877        2.29286       -0.94204
H         -1.56966        2.65403        0.26342
H         -4.41142       -1.85027        0.30486
H         -2.95793       -1.71770        1.03768
C         -3.39312       -0.13100       -0.14893
C         -2.70308        0.97288        0.64679
N         -3.78677       -1.19697        0.76335
N         -1.97439        1.88323       -0.26056
N          3.55954        0.93778        0.28028
H          3.55742        1.00716       -0.73413
C          4.36574       -0.21945        0.70250
H          5.41790       -0.13767        0.40935
H          4.30582       -0.31722        1.78857
H          3.93326       -1.11481        0.25314
H          3.94229        1.80464        0.64468
