32
1sa1eda1tma_19.log	Energy: -668370.0489961
S          0.12607       -1.18878        0.06974
O         -0.67502       -1.89464        1.06520
O          0.40704        0.24408        0.49944
O          1.37944       -1.82536       -0.35896
O         -0.74823       -1.05133       -1.25372
H         -1.73274       -0.92020       -0.99909
H         -4.28509        0.05146        1.21806
H         -2.57951       -0.40616        1.43886
H         -2.78569        2.03387        1.40283
H         -1.87418        1.46860       -0.00049
H         -4.66406        2.38087       -0.03141
H         -3.41217        2.91673       -0.93567
H         -3.65818       -1.64872       -0.35911
H         -3.85124       -0.23323       -1.19004
C         -3.28992        0.05319        0.74691
C         -2.86983        1.48652        0.45269
N         -3.27758       -0.71906       -0.50338
N         -3.80824        2.09483       -0.49580
N          2.84655        0.80901        0.01935
C          3.03264        2.22862        0.37493
H          2.36097        2.83697       -0.23211
H          2.78659        2.36584        1.42865
H          4.06943        2.52570        0.19332
C          3.66921       -0.08986        0.86049
H          3.43009        0.09579        1.90852
H          3.40467       -1.11744        0.60920
H          4.73015        0.10398        0.67749
C          3.07192        0.56049       -1.42323
H          2.83143       -0.48408       -1.62267
H          2.39873        1.19816       -1.99785
H          4.11215        0.78563       -1.67612
H          1.78634        0.55744        0.22409
