24
1sa1ma1dma_05.log	Energy: -584317.8587775
S          1.56591        0.07323        0.07313
O          0.69433        0.70003        1.11333
O          2.28984       -1.09759        0.55385
O          0.84480       -0.06938       -1.20184
O          2.69857        1.20062       -0.26906
H          3.41093        1.09315        0.37458
N         -1.77053        0.80490        0.08915
C         -2.81623        0.99720        1.10668
C         -1.79017        1.78582       -1.01341
H         -0.81398        0.83122        0.54305
H         -3.80165        0.91478        0.64335
H         -2.70603        0.22912        1.87316
H         -2.70641        1.98176        1.56490
H         -2.74275        1.72223       -1.54387
H         -1.65851        2.79014       -0.60645
H         -0.96134        1.54761       -1.68087
H         -1.82849       -0.17870       -0.31767
N         -1.50492       -1.79392       -0.85034
H         -2.08977       -2.32935       -1.48307
C         -1.15917       -2.58823        0.33804
H         -0.64025       -3.52326        0.10068
H         -0.49898       -1.99889        0.97990
H         -2.06910       -2.82389        0.89749
H         -0.64697       -1.54271       -1.34505
