29
1sa1dma1eda_70.log	Energy: -643705.8713200
S         -1.90713       -0.61883       -0.19161
O         -2.98536       -1.42176       -0.74253
O         -0.89198       -0.10680       -1.12162
O         -2.61658        0.77453        0.34781
O         -1.28179       -1.20515        1.03112
H         -3.50939        0.54493        0.63609
H          0.15526       -0.56749        1.36831
H          3.15271       -0.48261        1.14097
H          2.22525       -1.86376        1.75544
H          1.00023       -1.97803       -0.44325
H          1.95283       -0.63019       -1.03343
H          3.01342       -3.26994       -0.34325
H          3.14902       -2.45393       -1.74692
H          1.20557        0.17160        2.46288
H          1.08310        0.78551        0.86752
C          2.20010       -1.01302        1.06798
C          1.98164       -1.49447       -0.36321
N          1.10534       -0.10469        1.48913
N          3.10900       -2.34117       -0.74085
N          0.85397        2.02498       -0.21739
C          2.02508        2.57169       -0.89404
C         -0.00761        3.05368        0.36576
H          0.29001        1.46826       -0.86421
H          2.66716        3.08112       -0.16781
H          2.60065        1.76128       -1.34998
H          1.75927        3.29411       -1.67904
H          0.51757        3.55502        1.18652
H         -0.30200        3.81586       -0.36931
H         -0.91443        2.58200        0.75191
