18
1sa1a1ma_16.log	Energy: -534997.6197105
S          1.26368       -0.30333       -0.06800
O          0.41782       -1.04675        0.91027
O          2.62366       -0.79622       -0.18600
O          0.51907       -0.00740       -1.29971
O          1.40378        1.21633        0.60189
H          2.13039        1.18854        1.23738
N         -1.96119       -0.49465       -0.18344
H         -1.66170       -0.69421       -1.13963
H         -1.14677       -0.83401        0.39941
C         -3.25597       -1.09344        0.17872
H         -3.47927       -0.84897        1.21725
H         -4.04257       -0.69785       -0.46476
H         -3.20278       -2.17679        0.06936
H         -1.93019        0.56135       -0.09347
N         -1.39413        2.25014       -0.01024
H         -1.87539        2.98623        0.49575
H         -1.23821        2.57838       -0.95923
H         -0.46394        2.13518        0.39775
