32
1sa1eda1tma_14.log	Energy: -668369.8760796
S          0.09237       -0.68009       -0.04540
O          0.82236        0.51036       -0.64544
O         -0.89808       -1.21809       -0.97258
O          1.06176       -1.62821        0.52012
O         -0.68002       -0.08871        1.21790
H         -1.43623        0.52210        0.90207
H         -3.99519        1.60872       -1.30013
H         -2.51057        0.65253       -1.55268
H         -4.43621       -0.84093       -1.31927
H         -3.28793       -1.05634        0.00209
H         -5.88324        0.29531        0.17875
H         -5.26826       -0.87348        1.14237
H         -2.28566        2.41730        0.16312
H         -3.37218        1.58218        1.08254
C         -3.28849        0.90768       -0.82932
C         -4.02032       -0.36372       -0.42113
N         -2.65680        1.49404        0.36200
N         -5.02818       -0.05376        0.59845
N          3.29449        0.37980       -0.04311
C          3.83148       -0.84156       -0.68493
H          3.25438       -1.69154       -0.32003
H          3.69734       -0.75469       -1.76401
H          4.89349       -0.94829       -0.44546
C          3.92714        1.60694       -0.56322
H          3.77601        1.65311       -1.64252
H          3.45316        2.47316       -0.09980
H          4.99716        1.60232       -0.33676
C          3.36440        0.29560        1.43376
H          2.90104        1.18793        1.85681
H          2.79755       -0.58258        1.74484
H          4.40959        0.22786        1.74927
H          2.21795        0.43376       -0.30715
