23
1sa1a1eda_02.log	Energy: -594393.5345526
S         -1.49006       -0.49073        0.01374
O         -0.71264       -0.38880       -1.24688
O         -1.13580       -1.63483        0.85544
O         -1.53590        0.79419        0.73920
O         -2.99749       -0.77381       -0.53927
H         -3.49877       -1.16447        0.18857
H          2.63543        0.88542        1.23313
H          0.96008        0.29594        1.37364
H          2.57851       -1.61494        1.41034
H          1.49484       -1.68527        0.02419
H          4.33090       -0.97564       -0.03280
H          3.47902       -1.92191       -1.05746
H          1.17643        1.93666       -0.39174
H          2.31933        0.87611       -1.16441
C          1.85452        0.29272        0.74713
C          2.32773       -1.12677        0.46087
N          1.51398        0.94922       -0.53962
N          3.43564       -1.07940       -0.49755
H          0.69713        0.43572       -0.96732
N         -0.00775        3.22083        0.04256
H         -0.36138        3.78688       -0.72234
H          0.14053        3.84023        0.83256
H         -0.74290        2.55271        0.30027
