30
1sa1dma1tma_20.log	Energy: -633628.0096156
S          2.91208       -0.09967       -0.10437
O          4.15027       -0.86106       -0.06386
O          2.11135       -0.13742       -1.33186
O          2.04195       -0.31176        1.10086
O          3.35755        1.48024       -0.00242
H          4.19019        1.50656        0.48612
N         -4.03860        0.09066       -0.58199
C         -4.59610        1.31455       -0.02172
C         -4.71271       -1.10733       -0.09906
H         -4.10226        0.12624       -1.59402
H         -4.41370        1.33651        1.05874
H         -4.09971        2.18380       -0.46164
H         -5.68206        1.41749       -0.17892
H         -4.54682       -1.20874        0.97947
H         -5.80155       -1.10002       -0.26918
H         -4.29135       -1.99168       -0.58483
N         -0.45763       -0.14075        0.36843
C         -0.73179       -1.27171       -0.55129
H         -0.01782       -1.21138       -1.37297
H         -0.57788       -2.20592       -0.00940
H         -1.76394       -1.19220       -0.89858
C         -1.29455       -0.20079        1.58596
H         -1.12596       -1.15680        2.08321
H         -0.99920        0.60829        2.25529
H         -2.34173       -0.09806        1.29423
C         -0.59223        1.16381       -0.32609
H         -0.31538        1.95591        0.37101
H          0.10192        1.16804       -1.16676
H         -1.62810        1.27852       -0.65209
H          0.57105       -0.22235        0.67666
