26
1sa1ma1eda_114.log	Energy: -619044.6913156
S         -1.78014       -0.36517       -0.18304
O         -3.11662       -0.58437       -0.70780
O         -0.73669        0.08774       -1.10930
O         -1.90654        0.91241        0.85118
O         -1.28784       -1.48657        0.67826
H         -2.80059        0.89524        1.21658
H          0.21424       -1.53730        0.90658
H          2.91651       -2.61272        0.18591
H          1.38514       -2.74469       -0.72112
H          3.07897       -1.02267       -1.66861
H          1.44783       -0.40650       -1.34101
H          3.84984        0.27138        0.10993
H          2.43246        1.12964       -0.13188
H          1.36345       -2.34191        1.86026
H          1.71225       -0.76863        1.35612
C          2.01242       -2.08119       -0.12394
C          2.36103       -0.78586       -0.87578
N          1.27035       -1.67602        1.09815
N          2.83983        0.20726        0.08137
N          1.04126        2.46705       -0.54994
H          1.15665        3.14030       -1.30005
C          0.64276        3.14438        0.68523
H         -0.29673        3.70636        0.60279
H          0.50757        2.39640        1.47066
H          1.43367        3.83085        1.00262
H          0.30501        1.82129       -0.83880
