24
1sa1ma1dma_28.log	Energy: -584309.0747907
S         -1.62367        0.16764       -0.08440
O         -2.89413        0.67831       -0.56431
O         -1.15455        0.66398        1.21409
O         -1.83828       -1.47081        0.13583
O         -0.52694        0.13319       -1.09624
H         -2.70012       -1.59702        0.55321
H          0.64303       -0.74844       -0.61674
N          1.38184       -1.49048       -0.36457
C          1.35082       -1.73543        1.09914
C          2.70308       -1.05279       -0.87083
H          1.07150       -2.32898       -0.85462
H          1.65786       -0.81045        1.58594
H          0.32713       -1.98052        1.38118
H          2.03414       -2.55081        1.34521
H          2.94695       -0.12712       -0.34560
H          3.44893       -1.82507       -0.67253
H          2.62412       -0.86927       -1.94274
N          1.74450        1.58979        0.84510
H          0.77107        1.41943        1.10339
C          1.78265        2.44752       -0.34276
H          1.32787        3.43676       -0.19698
H          2.82026        2.59397       -0.66229
H          1.23863        1.95054       -1.15025
H          2.17502        2.06646        1.63115
