30
1sa1dma1tma_22.log	Energy: -633627.7867682
S          1.64714        0.72349       -0.01158
O          0.54790        0.24161       -0.92529
O          1.54409        2.14303        0.28726
O          1.82761       -0.21157        1.10052
O          3.01027        0.53939       -0.89172
H          3.13804        1.35291       -1.39743
N         -2.12024        1.78022       -0.45450
C         -3.32962        1.01194       -0.61271
C         -1.91412        2.28176        0.88852
H         -1.29451        1.28885       -0.78282
H         -4.20481        1.65547       -0.46358
H         -3.38953        0.60677       -1.62813
H         -3.43715        0.17043        0.10727
H         -2.67747        3.03141        1.12869
H         -1.97035        1.49674        1.66951
H         -0.93057        2.75122        0.95380
N         -0.46150       -1.95657        0.03568
C          0.62694       -2.95824        0.13769
H          1.03752       -3.13058       -0.85793
H          1.40417       -2.54507        0.78053
H          0.22562       -3.88874        0.54722
C         -1.00764       -1.60139        1.36814
H         -0.18701       -1.22234        1.97742
H         -1.75460       -0.81673        1.23951
H         -1.46286       -2.48549        1.82150
C         -1.52039       -2.37376       -0.90888
H         -2.26361       -1.57892       -0.97844
H         -1.07198       -2.53918       -1.88908
H         -1.98992       -3.29321       -0.55075
H         -0.02290       -1.05631       -0.36305
