27
1sa1ma1tma_03.log	Energy: -608977.3340990
S          0.61285       -0.64172        0.15767
O          0.28260        0.55210        0.96307
O          1.64117       -1.51101        0.72314
O         -0.64630       -1.36378       -0.23502
O          1.15817       -0.10785       -1.25513
H          2.15118        0.07032       -1.14886
N          3.73284        0.19419       -0.58656
H          3.73432       -0.69406       -0.08901
C          3.82484        1.30616        0.36670
H          4.74616        1.29713        0.96233
H          3.76872        2.25259       -0.17723
H          2.96772        1.25596        1.04263
H          4.51154        0.19576       -1.23618
N         -2.62266        0.25087       -0.06024
C         -2.20716        1.45747       -0.81335
H         -1.30472        1.85114       -0.34465
H         -1.97648        1.16687       -1.83900
H         -3.01477        2.19465       -0.79974
C         -3.78756       -0.41571       -0.67509
H         -3.55052       -0.65520       -1.71235
H         -3.99375       -1.33959       -0.13338
H         -4.65867        0.24409       -0.63426
C         -2.83512        0.54842        1.37470
H         -3.09501       -0.37794        1.88849
H         -1.89642        0.93082        1.77725
H         -3.64261        1.27825        1.48241
H         -1.77871       -0.45241       -0.11991
