29
1sa1dma1eda_83.log	Energy: -643706.0739616
S         -0.46764        1.47864        0.04003
O         -1.78946        2.06233       -0.03500
O          0.68529        2.30846        0.32329
O         -0.45446        0.31614        1.11798
O         -0.25481        0.68570       -1.30877
H         -1.22608       -0.37050        0.91416
H          0.64176        0.14577       -1.31640
H          3.89424       -1.18415       -0.93044
H          3.44012        0.50540       -1.24858
H          3.85384       -0.02237        1.19792
H          2.28883        0.70597        0.84821
H          2.75861       -1.85889        1.96106
H          1.34629       -1.02797        1.78841
H          1.98715       -1.14855       -2.35138
H          1.53595       -1.66889       -0.85240
C          3.11322       -0.42636       -0.77809
C          2.88488       -0.20041        0.71787
N          1.84463       -0.85619       -1.38914
N          2.18112       -1.34501        1.30871
N         -2.25188       -1.44495        0.52383
C         -1.53197       -2.43617       -0.28042
C         -3.36801       -0.82432       -0.20281
H         -2.60569       -1.88695        1.36777
H         -1.11585       -1.92843       -1.15473
H         -0.70710       -2.85211        0.30398
H         -2.18283       -3.25131       -0.62354
H         -2.96837       -0.28943       -1.06676
H         -4.10074       -1.56823       -0.54267
H         -3.85619       -0.09209        0.44178
