26
1sa1ma1eda_122.log	Energy: -619044.1942879
S         -1.41121       -0.60208        0.02650
O         -1.46861        0.16009        1.27836
O         -0.90238        0.18200       -1.13139
O         -0.75817       -1.91355        0.14370
O         -2.95244       -0.87032       -0.42100
H         -3.42446       -1.20995        0.35112
H          3.52127        0.27519       -0.53792
H          2.11868        1.30515       -0.03053
H          2.90484       -0.49001        1.67427
H          1.18446       -0.42852        1.30671
H          2.89834       -2.61429        0.85351
H          1.27759       -2.47994        0.52643
H          2.02101        0.18554       -2.32994
H          1.82400       -1.23287       -1.43926
C          2.46068        0.29294       -0.27233
C          2.16608       -0.66778        0.88749
N          1.69583       -0.20576       -1.45022
N          2.19062       -2.04928        0.40488
H          0.64886       -0.01617       -1.34960
N          0.43596        2.58912        0.82029
H         -0.21741        1.87969        1.15223
C         -0.18944        3.34830       -0.26407
H         -1.08132        3.91594        0.03780
H          0.53371        4.05264       -0.68937
H         -0.49500        2.64774       -1.04497
H          0.63676        3.19796        1.60685
