26
1sa1ma1eda_15.log	Energy: -619049.1257487
S         -1.84984       -0.51655       -0.02560
O         -2.32405        0.77307       -0.55250
O         -1.06530       -1.33078       -0.95265
O         -1.19024       -0.37172        1.30482
O         -3.18846       -1.40502        0.24602
H         -3.83930       -0.82829        0.66698
H          1.91018       -2.03309        0.29870
H          1.27083       -1.21072       -1.12228
H          3.76359       -1.54101       -1.30808
H          3.35631        0.17651       -1.25836
H          4.43297       -1.36734        0.98579
H          5.00289        0.02030        0.33852
H          0.48447       -0.29106        1.03725
H          2.10306        0.21846        1.29150
C          1.93975       -1.09844       -0.26846
C          3.36616       -0.74449       -0.66545
N          1.39697       -0.02266        0.59211
N          4.15638       -0.49721        0.54238
H          1.14385        0.84243        0.01505
N          0.30248        2.16505       -0.72740
H          0.71719        2.69837       -1.48470
C         -0.06554        3.04608        0.39056
H         -0.73892        3.85887        0.09661
H         -0.57724        2.44410        1.14565
H          0.83566        3.48032        0.83429
H         -0.55681        1.73733       -1.08230
