23
1sa1a1eda_42.log	Energy: -594389.1278272
S          1.48459       -0.20386        0.05872
O          1.54221        0.74440        1.17309
O          0.84812       -1.50426        0.44080
O          0.94206        0.29869       -1.20569
O          3.03105       -0.57271       -0.29525
H          3.51677       -0.62077        0.53869
H         -3.43568       -1.65008       -0.00696
H         -2.14419       -2.08547        1.14794
H         -3.14012        0.22490        1.58790
H         -1.40552        0.26411        1.26450
H         -3.49075        1.24374       -0.48211
H         -1.90630        1.73928       -0.30819
H         -1.66804       -2.30544       -1.38778
H         -1.55178       -0.62599       -1.29375
C         -2.43696       -1.39361        0.35636
C         -2.38307        0.07138        0.80955
N         -1.47819       -1.52050       -0.77137
N         -2.53706        0.92715       -0.35766
H         -0.48387       -1.59161       -0.37974
N         -0.30081        2.86992       -0.15534
H          0.25509        2.57641        0.64577
H         -0.25976        3.88147       -0.21450
H          0.18585        2.47971       -0.95979
