26
1sa1ma1eda_121.log	Energy: -619045.3022274
S         -1.81058       -0.49142       -0.14549
O         -3.16309       -0.92900        0.07248
O         -0.90807       -1.28280       -0.97297
O         -1.86958        0.97840       -0.69878
O         -1.11468       -0.30706        1.27253
H         -0.92583        1.40650       -0.71954
H         -0.10735       -0.43967        1.22226
H          3.28621       -1.70175        1.02162
H          1.73401       -2.51332        0.75751
H          2.81899       -1.95687       -1.36646
H          1.25393       -1.13931       -1.18667
H          3.85603        0.15760       -0.72259
H          2.85527        0.41673       -1.97453
H          1.61949       -0.77007        2.44436
H          1.98666        0.35358        1.31722
C          2.25758       -1.55908        0.65595
C          2.28095       -1.17270       -0.81572
N          1.54270       -0.55139        1.45474
N          2.87529        0.16182       -0.99169
N          0.46291        2.16182       -0.56264
H          1.26314        1.52444       -0.62298
C          0.43256        2.83192        0.74487
H          1.38062        3.31836        1.00380
H         -0.35943        3.58336        0.74823
H          0.18066        2.09601        1.51238
H          0.57742        2.84414       -1.30638
