23
1sa1a1eda_58.log	Energy: -594387.7555813
S          1.76866       -0.21142       -0.05368
O          2.94223       -1.06003       -0.14759
O          0.70287       -0.39548       -1.05689
O          0.99201       -0.68595        1.33388
O          2.05014        1.23373        0.16092
H          1.65233       -1.06853        1.92529
H          0.70668        2.04907       -0.36974
H         -3.46518       -0.45577        1.36701
H         -3.71602        1.03607        0.43111
H         -3.81701       -0.95534       -0.98742
H         -2.47506        0.08191       -1.47072
H         -2.17305       -2.49836       -1.07008
H         -0.97660       -1.48315       -0.60715
H         -1.86579        1.23775        1.96292
H         -1.07884        0.00633        1.25241
C         -3.02334        0.20552        0.61123
C         -2.83198       -0.59423       -0.67388
N         -1.74118        0.76513        1.07192
N         -1.95206       -1.73095       -0.44850
N         -0.26913        2.18457       -0.75641
H         -0.49247        3.15772       -0.93835
H         -0.93924        1.71145       -0.04174
H         -0.28763        1.62649       -1.61019
