30
1sa1dma1tma_15.log	Energy: -633632.6230401
S          1.72087       -0.79863       -0.06989
O          2.81852       -1.59282       -0.58992
O          0.88748       -1.42030        0.96678
O          2.42453        0.51478        0.68317
O          0.90423       -0.08991       -1.09458
H          3.16627        0.18376        1.20585
H         -0.09635        0.96282       -0.45321
N         -2.02396       -1.15892        0.10808
C         -2.13675       -1.55139       -1.28997
C         -3.03394       -1.78267        0.94824
H         -1.09505       -1.41364        0.44463
H         -3.06008       -1.14149       -1.71975
H         -1.28263       -1.15237       -1.84302
H         -2.15994       -2.64442       -1.43326
H         -4.02762       -1.40244        0.68181
H         -3.06074       -2.88158        0.85578
H         -2.84833       -1.53555        1.99788
N         -0.56135        1.83428       -0.05350
C         -0.72598        1.61780        1.40627
H         -1.39354        0.76698        1.53896
H          0.25107        1.39099        1.83285
H         -1.14557        2.52270        1.85340
C          0.38344        2.93961       -0.34176
H          1.34327        2.69463        0.11367
H          0.50986        3.02112       -1.42156
H         -0.01624        3.87180        0.06471
C         -1.86792        2.00790       -0.72937
H         -1.69907        2.09675       -1.80329
H         -2.46142        1.11746       -0.51331
H         -2.35165        2.91155       -0.35005
