26
1sa1ma1eda_96.log	Energy: -619046.1792033
S         -1.86516       -0.60400       -0.11940
O         -1.63362        0.73329       -0.67679
O         -2.97620       -1.38305       -0.64014
O         -0.58538       -1.37241       -0.01566
O         -2.25392       -0.26220        1.44903
H         -2.77097       -1.00710        1.78131
H          0.04015        1.18264        1.29572
H          1.75268        1.29024        1.74558
H          0.57400        3.49821        1.08556
H          2.11812        3.18382        0.27866
H         -0.47756        2.53362       -0.95200
H          0.56567        3.73716       -1.42028
H          0.63287       -0.33329       -0.14820
H          1.24497        0.95541       -1.04261
C          1.04062        1.41515        0.92746
C          1.08040        2.84110        0.36546
N          1.35546        0.44349       -0.15338
N          0.49624        2.83427       -0.96913
H          2.29603        0.00276       -0.06276
N          3.54896       -1.35585        0.20436
H          4.46004       -1.25677       -0.23212
C          2.81914       -2.49651       -0.37625
H          3.33278       -3.45637       -0.24994
H          1.82801       -2.56544        0.07942
H          2.67329       -2.32034       -1.44469
H          3.71997       -1.51737        1.19228
