26
1sa1ma1eda_99.log	Energy: -619045.1168605
S          1.56893        0.32675        0.05553
O          1.75965       -1.12317        0.37569
O          0.83003        0.50047       -1.19679
O          1.09900        1.10007        1.20783
O          3.05926        0.88982       -0.28317
H          3.49956        1.07192        0.55751
H         -1.78953       -3.51093        0.02061
H         -0.42650       -3.17912        1.12760
H         -2.49061       -1.75442        1.62176
H         -1.05263       -0.79932        1.24981
H         -3.38962       -1.08706       -0.42558
H         -2.30357        0.17705       -0.28133
H          0.00358       -3.13016       -1.42781
H         -0.78837       -1.64458       -1.31098
C         -1.07072       -2.75778        0.35401
C         -1.79086       -1.48610        0.82151
N         -0.23094       -2.36154       -0.80627
N         -2.41010       -0.84813       -0.33129
H          0.66068       -1.89445       -0.44376
N         -1.58619        1.98441       -0.08816
H         -0.93381        1.97283        0.69310
C         -2.40133        3.19570       -0.07523
H         -1.82271        4.12987       -0.10983
H         -3.08312        3.18910       -0.93117
H         -3.01464        3.21291        0.83076
H         -0.98720        1.94675       -0.90942
