23
1sa1a1eda_45.log	Energy: -594389.8293596
S          1.52537       -0.29405        0.03761
O          1.19382        0.52743        1.21653
O          0.87700       -1.60716       -0.02169
O          1.40789        0.47951       -1.22571
O          3.11465       -0.59276        0.23751
H          0.56571        1.99651       -0.89560
H          3.33930       -1.35030       -0.31875
H         -1.21437        0.18143        1.12422
H         -2.83443        0.61905        1.66412
H         -2.53953       -1.84609        1.26232
H         -3.81995       -1.15276        0.24974
H         -1.08505       -1.72700       -0.66445
H         -2.49104       -2.37892       -1.22391
H         -2.21619        0.62255       -1.15729
H         -3.30262        1.56503       -0.38060
C         -2.26315        0.23795        0.81270
C         -2.73610       -1.16467        0.42134
N         -2.36105        1.18940       -0.31437
N         -2.07743       -1.54632       -0.82305
N          0.00413        2.54535       -0.20634
H         -1.01311        2.17672       -0.25670
H          0.07917        3.54772       -0.34292
H          0.41533        2.23603        0.68704
