32
1sa1eda1tma_04.log	Energy: -668371.9761216
S         -0.02474       -0.90572       -0.30140
O         -1.06308       -1.10154       -1.31504
O          1.13476       -1.80515       -0.35507
O          0.44869        0.53556       -0.27041
O         -0.69178       -1.15369        1.12068
H         -1.69701       -0.93186        1.07881
H         -4.73401        0.92217        0.90904
H         -3.35098        1.17343        2.00307
H         -3.28922        2.60296       -0.03810
H         -1.85579        1.57674        0.11660
H         -3.30227        1.70777       -2.10295
H         -2.52626        0.33266       -1.66275
H         -3.81047       -1.18053        1.61945
H         -3.51911       -0.98131        0.02195
C         -3.64980        0.78782        1.02215
C         -2.93677        1.56659       -0.08121
N         -3.27775       -0.63364        0.94999
N         -3.25289        0.99253       -1.38906
N          2.97109        0.59265        0.14297
C          3.61425       -0.02146       -1.04127
H          3.20701       -1.02630       -1.15681
H          3.36208        0.57051       -1.92223
H          4.69857       -0.04386       -0.90022
C          3.34617        2.00991        0.31242
H          3.07777        2.55693       -0.59225
H          2.79432        2.42310        1.15758
H          4.42142        2.09403        0.49291
C          3.21584       -0.20268        1.36885
H          2.67710        0.25827        2.19777
H          2.82166       -1.20539        1.20022
H          4.28815       -0.22708        1.58253
H          1.88284        0.56587       -0.03651
