26
1sa1ma1eda_42.log	Energy: -619048.3485644
S          1.44808       -0.72775       -0.00685
O          2.40363        0.36205       -0.24941
O          0.65904       -0.52111        1.24297
O          0.58661       -1.09143       -1.13493
O          2.34877       -2.06041        0.25206
H          3.12664       -1.78964        0.75701
H         -2.18867        2.74335       -0.01277
H         -1.78642        2.14796        1.61856
H         -0.10763        3.85322        0.73041
H          0.61565        2.29321        1.14167
H          0.52839        3.47598       -1.43306
H          1.29382        2.08653       -0.94772
H         -2.29602        0.28422       -0.04995
H         -0.93646        0.85505       -0.87546
C         -1.45756        2.18436        0.57747
C         -0.05698        2.79823        0.44058
N         -1.39203        0.80681        0.04738
N          0.42103        2.60967       -0.92438
H         -0.73739        0.22645        0.62950
N         -3.37072       -1.17461       -0.32328
H         -4.25254       -1.24639        0.17462
C         -2.45559       -2.25903        0.08322
H         -2.86449       -3.26016       -0.09415
H         -1.51060       -2.15607       -0.45719
H         -2.23371       -2.15623        1.14821
H         -3.59130       -1.26069       -1.31115
