23
1sa1a1eda_66.log	Energy: -594384.9716324
S         -1.44227       -0.07647       -0.01659
O         -1.02233       -1.09179       -1.03037
O         -0.77272       -0.31585        1.27167
O         -1.40321        1.29448       -0.52248
O         -3.00337       -0.39591        0.30174
H         -3.53643        0.05421       -0.36720
H          3.19190       -1.82737        0.18769
H          2.44732       -1.90455       -1.43825
H          3.16110        0.38518       -0.89294
H          1.40938        0.32261       -1.07156
H          2.35448        1.52141        0.89677
H          1.20291        0.47504        1.26406
H          1.17217       -3.11963        0.25032
H          0.89776       -1.70200        1.07634
C          2.34615       -1.50830       -0.42525
C          2.24493        0.01156       -0.42624
N          1.10751       -2.10868        0.15649
N          2.16730        0.52126        0.93633
H          0.24856       -1.84705       -0.42444
N          1.05684        3.24196       -0.16080
H          0.22883        2.66043       -0.29407
H          1.22442        3.73230       -1.03328
H          0.81886        3.94411        0.53237
