24
1sa1ma1dma_37.log	Energy: -584301.4062102
S         -0.54247       -1.13233        0.01191
O          0.22462       -2.32996       -0.26263
O         -1.97891       -1.28031        0.31607
O          0.03391       -0.50823        1.41404
O         -0.33476       -0.03345       -0.99073
H          0.99343       -0.63894        1.42710
H         -1.69217        0.86172       -1.05156
N          2.60417        0.89249       -0.63223
C          2.48812        1.92950        0.37097
C          3.34990       -0.26155       -0.17816
H          1.68402        0.61158       -0.95811
H          3.47704        2.34809        0.59109
H          1.86010        2.74114       -0.00769
H          2.05459        1.58098        1.32910
H          4.40264        0.00426       -0.02817
H          2.99106       -0.68389        0.78517
H          3.29683       -1.05577       -0.92530
N         -2.65083        1.11829       -0.66577
H         -3.29777        1.39344       -1.40005
C         -2.50838        2.13164        0.40558
H         -3.47046        2.29777        0.88929
H         -1.78965        1.74571        1.12908
H         -2.13441        3.06032       -0.02432
H         -2.90578        0.19346       -0.26461
