26
1sa1ma1eda_44.log	Energy: -619047.1276268
S          0.90430       -1.10660        0.03968
O          2.30118       -1.29877       -0.30708
O          0.10757       -2.21484        0.52941
O          0.81511        0.03591        1.13663
O          0.19503       -0.46753       -1.20244
H          1.60607        0.68904        0.99234
H         -0.87202       -0.57068       -1.11990
H         -3.73713       -0.68878        0.67436
H         -2.04558       -1.00594        1.11976
H         -2.67580        1.28309        1.77090
H         -1.43595        1.31014        0.51574
H         -4.28074        1.89494        0.11856
H         -2.98471        2.79247       -0.31234
H         -2.57709       -1.68551       -1.16662
H         -2.86017       -0.09834       -1.54173
C         -2.69284       -0.41911        0.46351
C         -2.48512        1.06917        0.71008
N         -2.33709       -0.72681       -0.93292
N         -3.32226        1.84315       -0.21019
N          2.89846        1.51400        0.55739
H          3.29948        2.15376        1.23527
C          2.64901        2.18230       -0.72772
H          3.55095        2.62155       -1.16837
H          2.23519        1.45034       -1.42439
H          1.90643        2.97084       -0.58397
H          3.55111        0.74394        0.42814
