27
1sa1ma1tma_16.log	Energy: -608966.6368328
S          1.79100       -0.40461        0.00025
O          1.38879       -1.80320       -0.06988
O          1.38138        0.32935        1.22050
O          3.41828       -0.40739        0.11728
O          1.47779        0.38222       -1.22383
H          3.73955       -1.17825       -0.36885
H          0.69013        1.85023       -0.78875
N          0.30264        2.43329       -0.00593
H          0.61780        1.83202        0.79224
C         -1.17254        2.55953       -0.07083
H         -1.52614        3.09616        0.81014
H         -1.44627        3.10597       -0.97390
H         -1.59376        1.54340       -0.09312
H          0.78401        3.32862        0.02729
N         -2.36410       -0.46865       -0.00692
C         -1.95571       -1.07933        1.25177
H         -0.87440       -1.23067        1.25936
H         -2.21982       -0.41847        2.08415
H         -2.44723       -2.05597        1.41741
C         -3.79699       -0.23247       -0.03300
H         -4.08487        0.41800        0.79992
H         -4.07662        0.26205       -0.96917
H         -4.38016       -1.16922        0.04679
C         -1.94658       -1.28045       -1.14355
H         -2.18031       -0.75791       -2.07676
H         -0.86954       -1.45493       -1.10054
H         -2.45721       -2.26128       -1.15918
