29
1sa1dma1eda_82.log	Energy: -643706.8261008
S          0.20936       -0.31702       -0.47066
O         -0.81500       -1.34177       -0.30072
O          1.36408       -0.72811       -1.31663
O         -0.42004        0.90739       -1.27452
O          0.68732        0.25547        0.83170
H         -1.17892        1.31763       -0.73510
H          2.39790        0.29413        0.83739
H         -3.08807       -0.17729       -1.00616
H         -4.67193        0.27824       -0.34720
H         -3.69918        1.03549        1.71889
H         -2.17925        0.18784        1.38966
H         -3.10259        2.46605       -0.22128
H         -1.94951        2.52619        0.93544
H         -4.50976       -2.02743       -0.08107
H         -3.00043       -1.93946        0.53520
C         -3.69466       -0.14961       -0.08916
C         -2.99540        0.74946        0.92727
N         -3.90064       -1.46605        0.50345
N         -2.39267        1.91617        0.25512
N          3.26928        0.03275        0.31016
C          3.99796       -1.04039        1.00908
C          4.06327        1.22416       -0.03423
H          2.77177       -0.34980       -0.54186
H          4.40548       -0.65767        1.94654
H          3.29814       -1.85091        1.21360
H          4.80793       -1.40397        0.37452
H          4.46464        1.67511        0.87509
H          4.88197        0.93766       -0.69656
H          3.41229        1.93483       -0.54396
