24
1sa1ma1dma_31.log	Energy: -584307.8642013
S          1.68058       -0.09815       -0.10083
O          3.09867       -0.11750       -0.41592
O          0.72504       -0.41772       -1.16607
O          1.45035       -1.31959        0.98049
O          1.25131        1.13102        0.64387
H          2.29038       -1.45489        1.43743
H         -0.14285        1.58262        0.29099
N         -1.12292        2.01293        0.10805
C         -2.04821        1.55062        1.17213
C         -1.57777        1.67305       -1.26150
H         -0.98538        3.02022        0.18076
H         -2.15702        0.46595        1.05548
H         -1.60653        1.78591        2.14090
H         -3.01228        2.05202        1.06199
H         -1.70379        0.59324       -1.31159
H         -2.52136        2.18267       -1.46785
H         -0.80955        1.97252       -1.97328
N         -1.68592       -1.60355        0.26374
H         -0.92368       -1.45929       -0.39789
C         -2.66873       -2.54259       -0.27343
H         -2.25627       -3.52513       -0.54348
H         -3.46784       -2.69891        0.45770
H         -3.12676       -2.11498       -1.17077
H         -1.23907       -1.99340        1.08820
