23
1sa1a1eda_47.log	Energy: -594389.0169758
S          1.60505       -0.39404       -0.20187
O          2.78881       -1.20927       -0.25440
O          0.55189       -0.60181       -1.19616
O          0.93723       -0.53352        1.22860
O          2.05499        1.10949       -0.21767
H         -0.08862       -0.56680        1.18927
H          1.27757        1.71762        0.08759
H         -1.58413       -1.78224       -0.45247
H         -3.13692       -1.98438        0.38073
H         -3.37918       -0.59606       -1.58634
H         -3.79619        0.30205       -0.12420
H         -1.14204        0.50028       -1.37022
H         -2.36678        1.56596       -1.63899
H         -2.16637        0.06778        1.70990
H         -1.74228       -1.45867        2.10742
C         -2.34353       -1.26614        0.14288
C         -2.95775       -0.14049       -0.67840
N         -1.68963       -0.76292        1.36893
N         -1.98329        0.91315       -0.96340
N          0.01751        2.53456        0.64368
H          0.01200        2.48594        1.65765
H         -0.82392        2.06709        0.27867
H         -0.01178        3.51319        0.37675
