24
1sa1ma1dma_23.log	Energy: -584313.4352543
S          1.54205       -0.25445        0.03536
O          1.58385       -1.68283       -0.26983
O          0.68151        0.15326        1.15217
O          3.04298        0.14192        0.54018
O          1.29865        0.59604       -1.17053
H          3.66500       -0.40141        0.03901
H         -0.13326        1.27797       -1.02190
N         -2.56142       -0.63643       -0.15569
C         -2.44207       -0.78065        1.30187
C         -1.92715       -1.75100       -0.87419
H         -3.54675       -0.61088       -0.40316
H         -1.38372       -0.73020        1.57060
H         -2.96685        0.04394        1.79317
H         -2.86082       -1.73069        1.66221
H         -0.85855       -1.77786       -0.64470
H         -2.36162       -2.72178       -0.59841
H         -2.04501       -1.60573       -1.95137
N         -1.11633        1.64338       -0.83209
H         -1.46901        2.08041       -1.68032
C         -1.10271        2.58635        0.30865
H         -2.12317        2.88849        0.55004
H         -0.64251        2.06732        1.14923
H         -0.50534        3.46221        0.05380
H         -1.72128        0.78547       -0.60351
