26
1sa1ma1eda_37.log	Energy: -619048.8462020
S          1.82508       -0.33060       -0.09609
O          2.99983       -1.07859       -0.50831
O          0.67532       -0.29133       -1.01437
O          1.19854       -1.17626        1.18863
O          2.10452        1.02003        0.46293
H          1.90799       -1.72381        1.54773
H          0.69986        1.85211        0.45078
H         -3.39174       -1.27037        1.23585
H         -3.65937        0.44814        0.86459
H         -3.74948       -0.93528       -1.14903
H         -2.40257        0.20189       -1.24573
H         -2.11798       -2.37809       -1.72795
H         -0.91153       -1.54731       -0.99505
H         -1.78864        0.06383        2.37853
H         -0.99070       -0.74810        1.22327
C         -2.95760       -0.38700        0.75050
C         -2.76529       -0.70239       -0.72922
N         -1.67808       -0.00559        1.37052
N         -1.88073       -1.84639       -0.90042
N         -0.29925        2.20205        0.39343
H         -0.89861        1.38077        0.75142
C         -0.63854        2.55785       -1.00181
H         -1.69678        2.81421       -1.07193
H         -0.02760        3.40115       -1.32517
H         -0.41408        1.68699       -1.61757
H         -0.41076        2.99140        1.02521
