23
1sa1a1eda_07.log	Energy: -594393.7309656
S          1.65192       -0.23454        0.07362
O          2.58607       -1.16970        0.67851
O          0.91089       -0.79496       -1.09461
O          0.74373        0.49308        0.97786
O          2.56047        0.98230       -0.54931
H          3.39846        0.59468       -0.83367
H         -3.51149       -0.18587       -0.82264
H         -2.65843       -1.49704       -1.68082
H         -2.98044       -2.06286        0.66802
H         -1.26091       -1.93392        0.28890
H         -2.35231       -0.74028        2.36801
H         -1.09871       -0.06180        1.56607
H         -1.69267        0.53130       -2.33135
H         -1.52181        1.13345       -0.77138
C         -2.56389       -0.72279       -0.91441
C         -2.18435       -1.35359        0.42143
N         -1.53081        0.24654       -1.36793
N         -2.07333       -0.34958        1.47634
H         -0.55593       -0.17399       -1.30773
N         -1.31522        2.47014        0.28935
H         -1.98571        2.30518        1.03506
H         -1.29581        3.46071        0.07462
H         -0.39930        2.18590        0.64295
