24
1sa1ma1dma_24.log	Energy: -584313.5918147
S          1.58328       -0.13196        0.00908
O          1.62459       -1.58059       -0.17699
O          0.95421        0.33776        1.25957
O          3.13245        0.35086        0.17649
O          1.05592        0.60154       -1.17466
H          3.66747       -0.19397       -0.41539
H         -0.43017        1.40726       -0.70258
N         -2.45606       -0.91006       -0.03630
C         -2.01740       -1.52993        1.22135
C         -1.86754       -1.56968       -1.21023
H         -3.46808       -0.96987       -0.09845
H         -0.94020       -1.38283        1.33845
H         -2.52430       -1.04851        2.06228
H         -2.22659       -2.60803        1.25107
H         -0.77939       -1.47219       -1.17314
H         -2.11288       -2.63982       -1.25290
H         -2.22931       -1.08606       -2.12138
N         -1.15899        1.54992        0.03207
H         -1.79084        0.68799       -0.00944
C         -1.87729        2.82981       -0.06047
H         -2.59785        2.90725        0.75450
H         -1.16680        3.65433        0.00204
H         -2.40399        2.88023       -1.01388
H         -0.58819        1.43888        0.88410
