24
1sa1a1tma_05.log	Energy: -584317.3864787
S          1.53708       -0.16680        0.04281
O          2.05362        1.05611        0.66065
O          1.02853       -1.20473        0.94078
O          0.56002        0.12133       -1.05761
O          2.81118       -0.86412       -0.69558
H          3.41841       -0.15599       -0.94658
N         -0.59537        2.69929       -0.04183
H          0.19087        2.54464        0.58842
H         -0.73446        3.70254       -0.10908
H         -0.24958        2.37232       -0.94105
N         -1.84785       -0.40630       -0.05139
C         -1.90079       -0.03292        1.38589
H         -1.07666       -0.53441        1.89391
H         -1.77526        1.04874        1.44962
H         -2.86468       -0.34402        1.79682
C         -2.87335        0.31346       -0.83956
H         -2.72491        1.38200       -0.67760
H         -2.73732        0.07462       -1.89525
H         -3.86793        0.00252       -0.51026
C         -1.90440       -1.87582       -0.24103
H         -1.82171       -2.09357       -1.30636
H         -1.05446       -2.31314        0.28404
H         -2.85030       -2.25644        0.15182
H         -0.89839       -0.10918       -0.42855
