29
1sa1dma1eda_33.log	Energy: -643706.7405838
S         -0.29667       -1.22491       -0.09259
O         -1.54347       -1.93988        0.12021
O          0.75917       -1.81512       -0.89223
O         -0.62793        0.18104       -0.73247
O          0.26070       -0.85442        1.32724
H         -1.56919        0.49172       -0.36421
H          1.25702       -0.49814        1.28234
H          4.46882       -0.03274        0.11447
H          3.17343       -1.14752       -0.39263
H          3.32213        0.76410       -1.93502
H          1.77078        0.73921       -1.09606
H          3.97722        2.58100       -0.55347
H          2.39196        2.90672       -0.78768
H          3.19275       -0.52205        2.03042
H          2.73067        0.98494        1.55196
C          3.38142       -0.15174        0.00525
C          2.84255        0.90105       -0.95629
N          2.70309       -0.00550        1.30588
N          3.03742        2.23772       -0.38630
N         -2.96132        0.74026        0.20995
C         -3.95309        0.48101       -0.83570
C         -3.12721        2.03443        0.86843
H         -3.00701       -0.01117        0.89536
H         -3.83005        1.21698       -1.63537
H         -3.77869       -0.51482       -1.24734
H         -4.98230        0.54361       -0.45732
H         -2.98289        2.83040        0.13224
H         -4.12272        2.15350        1.31762
H         -2.36932        2.14401        1.64724
