29
1sa1dma1eda_52.log	Energy: -643707.8569796
S         -0.04988        1.75310       -0.02746
O          1.30586        1.75903       -0.59580
O         -1.07955        1.27984       -0.97612
O         -0.15824        1.07835        1.28532
O         -0.40251        3.29891        0.33029
H         -0.12695        3.84174       -0.42047
H         -1.42924       -3.17855       -0.38723
H         -1.16690       -2.85932        1.34871
H         -3.58429       -2.59217        0.61616
H         -2.90792       -1.13429        1.35053
H         -4.12463       -1.10647       -1.00956
H         -2.82893       -0.12434       -0.76638
H          0.53232       -1.59693       -0.07605
H         -0.79845       -0.89179       -0.82110
C         -1.46382       -2.41717        0.39478
C         -2.85673       -1.78937        0.46797
N         -0.49815       -1.35638        0.04604
N         -3.13961       -1.09444       -0.78185
H         -0.49168       -0.58285        0.74653
N          2.24056       -1.14034       -0.20218
C          3.13844       -1.92757       -1.04136
C          2.74165       -0.96650        1.16237
H          2.12448       -0.20563       -0.60202
H          3.23186       -2.93812       -0.62996
H          2.72660       -2.00503       -2.05092
H          4.14680       -1.49287       -1.10789
H          2.76901       -1.93685        1.67038
H          3.75358       -0.53744        1.18658
H          2.07105       -0.29587        1.70590
