29
1sa1dma1eda_77.log	Energy: -643706.1106082
S          2.16151       -0.12678        0.09896
O          2.62727        0.90848        1.01698
O          1.30088       -1.17543        0.70597
O          1.57198        0.38270       -1.15764
O          3.49230       -0.97608       -0.32932
H          4.23268       -0.35572       -0.32885
H         -2.71159       -1.69945       -1.56735
H         -1.58921       -2.92649       -0.94924
H         -3.35212       -2.73016        0.67136
H         -1.91431       -1.97855        1.36783
H         -4.22443       -0.54695        0.28134
H         -3.52305       -0.39592        1.74945
H         -0.42713       -0.92353       -1.74655
H         -1.15277        0.07704       -0.61328
C         -1.99474       -1.92671       -0.77218
C         -2.67595       -1.86685        0.58904
N         -0.89072       -0.95289       -0.83860
N         -3.33615       -0.57783        0.77055
H         -0.11008       -1.17428       -0.16521
N         -1.00873        1.71942       -0.32179
C         -0.87015        1.93394        1.11820
C         -2.04387        2.55094       -0.92070
H         -0.10527        1.87966       -0.76642
H         -1.78687        1.59890        1.61228
H         -0.02728        1.35147        1.49660
H         -0.69770        2.99086        1.36710
H         -3.01316        2.26473       -0.49980
H         -1.88942        3.62467       -0.73633
H         -2.07458        2.38601       -2.00151
