24
1sa1a1tma_10.log	Energy: -584314.1522849
S         -1.94163       -0.01391        0.03633
O         -3.38738       -0.12026        0.13560
O         -1.20434        0.42346        1.23625
O         -1.40081       -1.56234       -0.15782
O         -1.45254        0.70199       -1.17747
H         -2.11857       -2.06158       -0.56817
H         -0.14453        1.64271       -0.74305
N          0.59890        1.99453       -0.07983
H          0.90880        2.93691       -0.29198
H          1.39774        1.26104       -0.07135
H          0.11929        1.93393        0.82546
N          2.35346       -0.10181       -0.00548
C          2.03171       -0.71397        1.28820
H          2.36871       -0.05651        2.09519
H          0.94989       -0.84283        1.37441
H          2.52446       -1.69164        1.40482
C          1.88434       -0.94724       -1.10815
H          0.81344       -1.13286       -0.99979
H          2.06019       -0.43948       -2.06095
H          2.41118       -1.91421       -1.12261
C          3.78340        0.17044       -0.12259
H          3.99032        0.65340       -1.08196
H          4.10154        0.83996        0.68181
H          4.38089       -0.75338       -0.06308
