29
1sa1dma1eda_10.log	Energy: -643710.8467484
S         -1.97407       -0.09610       -0.15781
O         -0.92089        0.16089       -1.15505
O         -3.30170       -0.41288       -0.65492
O         -1.49379       -1.00061        0.92356
O         -2.10965        1.37961        0.57598
H         -3.01734        1.45037        0.89863
H          2.96935       -1.50976        0.95971
H          1.84480       -2.54079        1.88337
H          2.05988       -3.32759       -0.41384
H          0.40355       -2.80815       -0.08356
H          1.69608       -2.02780       -2.21870
H          0.69381       -0.98716       -1.45813
H          1.29030       -0.33599        2.38019
H          1.34610        0.24880        0.77775
C          1.92627       -1.81976        1.06485
C          1.43197       -2.44951       -0.23302
N          1.12463       -0.61871        1.41705
N          1.55648       -1.52215       -1.35222
H          0.08959       -0.80246        1.30274
N          1.46124        1.57750       -0.14634
C          2.73225        1.68928       -0.85738
C          1.07425        2.79851        0.55815
H          0.71390        1.32524       -0.79546
H          3.53497        1.88247       -0.13714
H          2.93159        0.74150       -1.36291
H          2.73119        2.50602       -1.59327
H          1.79247        3.00334        1.36004
H          1.04822        3.67370       -0.10646
H          0.07997        2.66225        0.99027
