30
1sa1dma1tma_17.log	Energy: -633631.8987060
S          1.84844       -0.05526       -0.09212
O          3.17032        0.55141       -0.14789
O          1.06317       -0.10669       -1.33338
O          2.09252       -1.64139        0.24962
O          0.99893        0.44512        1.03307
H          2.89251       -1.70072        0.78741
H         -0.38289        0.96813        0.29812
N         -1.46759       -1.62537       -0.07745
C         -2.24165       -2.54255       -0.90105
C         -1.18948       -2.16647        1.24717
H         -0.58498       -1.42741       -0.54592
H         -3.23359       -2.68794       -0.45775
H         -2.37646       -2.12025       -1.90176
H         -1.77233       -3.53454       -1.00903
H         -2.12961       -2.27060        1.80291
H         -0.70236       -3.15434        1.21624
H         -0.53209       -1.48034        1.78640
N         -1.16467        1.63887        0.05691
C         -2.21848        1.41941        1.07518
H         -2.56023        0.38854        0.96806
H         -1.78129        1.56719        2.06337
H         -3.03393        2.12809        0.91154
C         -0.54400        2.98071        0.16423
H         -0.10578        3.08541        1.15645
H          0.24676        3.05552       -0.58266
H         -1.30376        3.74678       -0.00700
C         -1.65546        1.36786       -1.31637
H         -0.80224        1.37731       -1.99375
H         -2.10333        0.37518       -1.31560
H         -2.38874        2.13238       -1.58569
