32
1sa1eda1tma_22.log	Energy: -668367.3220408
S         -0.10510       -0.54838        0.24802
O          0.68312       -1.64679        0.80641
O         -0.63685        0.43682        1.20095
O          0.86588        0.26476       -0.73332
O         -1.22022       -1.03730       -0.64688
H          1.75499       -0.24126       -0.81281
H         -2.43070       -0.29266       -0.35570
H          4.67180        0.96863       -1.27381
H          5.44028        1.18977        0.30178
H          5.05606       -1.11781        0.20404
H          3.71570       -0.51294        1.19792
H          3.55155       -1.31269       -1.61711
H          2.72416       -1.91300       -0.32314
H          3.66823        2.80478       -0.02603
H          2.54497        1.60888       -0.03695
C          4.49272        0.92952       -0.18318
C          4.14352       -0.50704        0.19156
N          3.47526        1.86056        0.28628
N          3.13595       -1.07171       -0.72252
N         -3.36178        0.26601       -0.16015
C         -3.05167        1.69579       -0.38902
H         -2.24462        1.97572        0.28846
H         -2.71331        1.81909       -1.41873
H         -3.94666        2.29874       -0.21113
C         -4.37006       -0.24478       -1.10960
H         -4.00671       -0.08958       -2.12620
H         -4.50700       -1.31323       -0.93901
H         -5.31866        0.28016       -0.96683
C         -3.73404        0.00723        1.24931
H         -3.89044       -1.06453        1.37834
H         -2.90211        0.32506        1.87832
H         -4.65020        0.55268        1.49334
