23
1sa1a1eda_04.log	Energy: -594392.8050302
S         -1.94837       -0.16371        0.04342
O         -1.19492       -0.43058        1.30375
O         -3.36084        0.11561        0.24558
O         -1.19590        0.73621       -0.84622
O         -1.88323       -1.58801       -0.78207
H         -2.64434       -2.11133       -0.49973
H          1.41884       -1.64697       -0.22128
H          1.04882       -0.24600       -1.22945
H          3.40605       -1.03871       -1.62065
H          3.38725        0.59157       -0.94034
H          3.99608       -1.85237        0.55550
H          4.88741       -0.48819        0.42707
H          0.37843       -0.07794        1.13093
H          2.06525        0.00813        1.50085
C          1.68315       -0.60400       -0.41690
C          3.16800       -0.45854       -0.71925
N          1.34865        0.18329        0.79264
N          3.93956       -0.84324        0.46361
H          1.31110        1.20852        0.55076
N          0.75390        2.78396       -0.12472
H          0.50092        3.49526        0.55388
H         -0.11286        2.36369       -0.47430
H          1.20835        3.25500       -0.90005
