26
1sa1ma1eda_66.log	Energy: -619046.7056643
S          0.66300       -1.12139        0.04346
O         -0.37711       -2.02619        0.48766
O          2.03694       -1.57992       -0.05196
O          0.28794       -0.49881       -1.34161
O          0.61428        0.13496        1.02135
H         -0.67602       -0.02525       -1.33644
H          1.52027        0.63896        0.94551
H         -4.00575        0.82125       -0.94329
H         -3.30257       -0.80212       -1.13214
H         -3.79681       -0.10698        1.27419
H         -2.15652       -0.67383        0.96803
H         -2.89705        1.86283        1.92804
H         -1.38515        1.27524        1.64050
H         -2.13371        0.98616       -2.37826
H         -1.73530        1.65009       -0.92171
C         -3.12134        0.20291       -0.74059
C         -2.85789        0.13979        0.76716
N         -1.93520        0.77138       -1.40538
N         -2.30680        1.41365        1.24123
N          2.97708        1.18658        0.65705
H          3.38871        1.81146        1.34258
C          3.03647        1.76250       -0.69447
H          4.05767        1.98507       -1.02296
H          2.58649        1.05323       -1.39237
H          2.44959        2.68378       -0.71720
H          3.49295        0.30956        0.68376
