26
1sa1ma1eda_61.log	Energy: -619046.3906332
S         -1.90637       -0.19624       -0.14655
O         -2.45471        0.78168       -1.07937
O         -1.53972        0.28975        1.19268
O         -3.11649       -1.25408        0.15569
O         -0.80325       -1.02090       -0.72912
H         -3.65906       -1.29795       -0.64219
H          0.42836       -0.88605        0.31861
H          3.18664       -1.16509        1.45854
H          2.17224       -2.52542        0.93608
H          3.65618       -1.98782       -0.89801
H          2.01548       -1.51467       -1.34453
H          4.19041        0.30248       -0.65281
H          3.10052        0.39441       -1.87394
H          0.77880       -0.86409        1.93591
H          1.32099        0.38720        0.97412
C          2.40384       -1.47178        0.75835
C          2.85292       -1.26831       -0.68399
N          1.19054       -0.67373        1.02392
N          3.22596        0.12285       -0.90701
N          0.84043        2.06779        0.95952
H         -0.11148        1.92757        1.30008
C          0.79300        2.52857       -0.43439
H          0.27968        3.48956       -0.55611
H          1.81181        2.60998       -0.81950
H          0.26065        1.78687       -1.03477
H          1.28698        2.76188        1.54952
