32
1sa1eda1tma_37.log	Energy: -668363.3545243
S         -0.56868        1.70240        0.04992
O          0.57948        2.10741       -0.76119
O         -0.27795        0.96754        1.28163
O         -1.25780        3.08584        0.56590
O         -1.63388        1.02348       -0.75484
H         -1.11847        3.75039       -0.12147
H         -1.73691       -0.46442       -0.36629
H          3.91552       -1.12764        1.23103
H          3.26967       -2.57612        0.42719
H          4.23547       -1.12261       -1.20733
H          2.48562       -1.15528       -1.45968
H          3.76323        1.08519       -1.42269
H          2.38191        1.05703       -0.57066
H          1.73304       -1.69109        2.05689
H          1.56398       -0.30801        1.22843
C          3.12077       -1.49789        0.56696
C          3.27979       -0.80050       -0.77910
N          1.77762       -1.29921        1.12108
N          3.31295        0.64898       -0.62714
N         -1.86170       -1.51791       -0.20874
C         -3.15428       -1.86934       -0.83508
H         -3.94535       -1.28030       -0.36980
H         -3.10491       -1.63103       -1.89799
H         -3.34882       -2.93584       -0.69813
C         -0.71388       -2.18721       -0.87247
H         -0.66402       -1.84204       -1.90633
H          0.20217       -1.91921       -0.33065
H         -0.86850       -3.26947       -0.84295
C         -1.86019       -1.75912        1.25406
H         -0.92347       -1.37580        1.65611
H         -2.69193       -1.21373        1.70089
H         -1.96353       -2.83116        1.44027
