32
1sa1eda1tma_09.log	Energy: -668373.9306002
S          0.11805       -1.68564       -0.04990
O          0.97946       -2.67140       -0.68562
O         -1.16546       -2.12810        0.49918
O          0.91459       -1.10983        1.24480
O         -0.06067       -0.45800       -0.91689
H          1.79303       -0.76908        0.90260
H         -1.27578        0.30879       -0.41918
H          1.27004        1.64445       -1.21638
H          1.98327        3.14943       -0.62572
H          3.79415        1.69030       -1.11627
H          3.68537        1.77490        0.64774
H          2.67494       -0.44743       -0.99309
H          3.94031       -0.48717        0.03638
H          0.79817        1.05925        1.05575
H          1.39271        2.48402        1.58790
C          1.81299        2.09526       -0.37892
C          3.17630        1.40643       -0.25075
N          0.94566        2.03206        0.79547
N          3.03892       -0.05085       -0.12777
N         -2.19391        0.80132       -0.12866
C         -2.26425        0.78582        1.35283
H         -2.15618       -0.24754        1.68472
H         -1.44282        1.38944        1.73856
H         -3.22270        1.20448        1.67145
C         -2.12742        2.17879       -0.66430
H         -1.24701        2.65981       -0.23103
H         -2.02583        2.12651       -1.74937
H         -3.04070        2.71933       -0.40130
C         -3.28085       -0.00415       -0.73227
H         -3.14135       -0.02357       -1.81375
H         -3.19968       -1.01942       -0.34168
H         -4.24741        0.44165       -0.48348
