32
1sa1eda1tma_15.log	Energy: -668370.2431977
S         -0.08179       -1.14041       -0.28002
O         -1.32239       -1.92142       -0.20461
O          0.99871       -1.66023       -1.10876
O         -0.40218        0.30471       -0.63280
O          0.43711       -1.07268        1.23082
H         -1.76530        0.56425       -0.23414
H          1.38488       -0.69246        1.25806
H          4.71560       -0.08528        0.17265
H          3.41070       -1.14812       -0.41715
H          3.57327        0.84429       -1.82445
H          2.02637        0.79554       -0.97538
H          4.27641        2.55412       -0.32853
H          2.70541        2.93653       -0.57215
H          3.41941       -0.70337        2.04333
H          2.96637        0.83550        1.67734
C          3.62551       -0.18686        0.05595
C          3.10168        0.93148       -0.83564
N          2.93862       -0.13165        1.35586
N          3.32433        2.23106       -0.19155
N         -2.81227        0.76344        0.07158
C         -2.96320        0.21405        1.43977
H         -2.74709       -0.85374        1.39844
H         -2.23439        0.69669        2.09207
H         -3.97879        0.40071        1.80054
C         -3.00521        2.22552        0.03577
H         -2.30106        2.69132        0.72643
H         -2.80684        2.58499       -0.97480
H         -4.03042        2.47416        0.32437
C         -3.67941        0.05670       -0.89793
H         -3.49797        0.46680       -1.89232
H         -3.39990       -0.99736       -0.88764
H         -4.72908        0.19357       -0.62220
