30
1sa1dma1tma_12.log	Energy: -633633.3512586
S          1.72424       -0.63696       -0.01809
O          1.66475        0.21770        1.17110
O          1.82366       -2.07676        0.17625
O          0.64918       -0.25193       -0.99450
O          3.11793       -0.18058       -0.74543
H          3.42768       -0.93368       -1.26510
N         -2.06452       -1.19941       -0.12544
C         -3.17457       -1.81145       -0.83931
C         -1.73948       -1.90883        1.10715
H         -1.23295       -1.19792       -0.71306
H         -4.09363       -1.71263       -0.25026
H         -3.33085       -1.29999       -1.79416
H         -3.02273       -2.88434       -1.04529
H         -2.55990       -1.79619        1.82646
H         -1.56548       -2.98533        0.95335
H         -0.83222       -1.48760        1.54859
N         -0.67340        1.82714        0.00356
C          0.37171        2.87774       -0.04337
H          1.17626        2.58076        0.62961
H          0.75867        2.94126       -1.06102
H         -0.06323        3.83372        0.25782
C         -1.77773        2.08167       -0.94861
H         -1.35993        2.16892       -1.95242
H         -2.45874        1.23056       -0.89973
H         -2.28937        3.00736       -0.67374
C         -1.17386        1.60790        1.38312
H         -1.91694        0.81132        1.33910
H         -0.32962        1.29895        1.99974
H         -1.61411        2.53734        1.75362
H         -0.19577        0.93521       -0.32411
