29
1sa1dma1eda_27.log	Energy: -643709.2796816
S         -1.36382       -1.33645        0.12311
O         -1.78994       -2.61495        0.67168
O         -1.02418       -0.26383        1.06727
O         -0.32783       -1.45802       -0.94683
O         -2.68176       -0.71466       -0.64567
H         -3.14656       -1.45253       -1.06064
H          2.71418        0.99686        0.98671
H          1.27798        0.02163        1.41055
H          3.33639       -1.41013        1.38664
H          2.17940       -1.89312        0.13959
H          4.69585       -0.47463       -0.30198
H          4.06211       -1.73892       -1.12225
H          0.91071        1.48457       -0.52464
H          2.13054        0.56088       -1.33233
C          2.06743        0.17134        0.67205
C          2.87200       -1.10178        0.44151
N          1.41437        0.55194       -0.60215
N          3.83015       -0.87675       -0.64444
H          0.70095       -0.19148       -0.84432
N         -0.10999        2.87897       -0.24851
C         -0.33791        2.96226        1.19856
C         -1.34967        2.59994       -0.98326
H          0.27721        3.75921       -0.57578
H         -0.70455        1.99316        1.54714
H          0.60461        3.18899        1.70542
H         -1.07545        3.73326        1.46409
H         -1.74864        1.63589       -0.65899
H         -2.11872        3.36714       -0.81352
H         -1.13811        2.54446       -2.05455
