23
1sa1a1eda_18.log	Energy: -594388.7258189
S         -1.00719       -0.40279       -0.27095
O         -1.06689        1.01292       -0.63422
O         -0.30859       -1.30238       -1.16937
O         -0.41981       -0.54063        1.16966
O         -2.47341       -0.93111       -0.07161
H         -3.08759       -0.14960        0.17273
H          3.77532       -1.02775       -0.12755
H          2.17318       -1.43688       -0.79769
H          3.01742        0.68548       -1.74699
H          1.53182        0.92957       -0.83163
H          4.21487        1.71189        0.01452
H          2.81739        2.56095        0.07068
H          2.36605       -1.60732        1.67986
H          2.51384        0.03755        1.70059
C          2.71746       -0.73334       -0.16377
C          2.59101        0.67518       -0.73511
N          2.12290       -0.75365        1.18631
N          3.21669        1.63667        0.17709
H          0.65905       -0.62779        1.15570
N         -3.86348        1.26176        0.44483
H         -4.73279        1.40590       -0.05732
H         -3.15612        1.88697        0.06276
H         -4.01150        1.50070        1.41949
