32
1sa1eda1tma_34.log	Energy: -668366.8847294
S          1.93719       -0.85476       -0.14158
O          2.53834       -2.08614       -0.62351
O          1.29042       -0.91619        1.18018
O          3.17697        0.22547        0.04220
O          1.08948       -0.12695       -1.12715
H          3.91826       -0.25229        0.43646
H          0.24856        1.00953       -0.40789
H         -4.02106       -2.08900       -0.21813
H         -3.45187       -1.36426       -1.72747
H         -1.67114       -2.67708       -0.65251
H         -1.22478       -0.98135       -0.77011
H         -2.09685       -2.33639        1.66719
H         -0.70197       -1.52392        1.37862
H         -4.63925        0.24729       -0.36768
H         -3.54100        0.04827        0.83224
C         -3.34391       -1.32605       -0.63825
C         -1.90698       -1.67409       -0.26776
N         -3.66757        0.02655       -0.17677
N         -1.70126       -1.54054        1.17605
N         -0.15329        1.90589        0.00231
C          0.97174        2.87050       -0.03847
H          1.81689        2.44162        0.50130
H          1.26075        3.02713       -1.07789
H          0.65662        3.81307        0.41529
C         -1.28493        2.31935       -0.86300
H         -0.92525        2.39208       -1.89050
H         -2.08208        1.57080       -0.78772
H         -1.65166        3.29305       -0.52660
C         -0.59067        1.62634        1.39355
H         -1.32973        0.82301        1.37538
H          0.27321        1.28503        1.96324
H         -1.01104        2.54055        1.82087
