32
1sa1eda1tma_06.log	Energy: -668368.6825754
S          0.15724       -1.49956        0.06352
O          1.42293       -2.05250       -0.38737
O         -0.76202       -2.31341        0.83750
O          0.43982       -0.19489        0.89508
O         -0.58573       -0.96062       -1.21698
H          1.33130        0.29884        0.53132
H         -1.60112       -0.79364       -0.99377
H         -4.06308        0.22612        1.15858
H         -2.40899       -0.36581        1.41988
H         -2.42853        2.08855        1.46309
H         -1.51474        1.50153        0.07002
H         -4.22178        2.62626       -0.02234
H         -2.90419        3.07810       -0.87754
H         -3.49495       -1.46533       -0.45572
H         -3.58671       -0.00941       -1.23786
C         -3.05524        0.17241        0.72221
C         -2.52070        1.57963        0.49313
N         -3.05945       -0.55383       -0.55751
N         -3.37657        2.28239       -0.46617
N          2.53461        0.96460        0.04014
C          2.42891        0.98825       -1.42355
H          2.34034       -0.03655       -1.78903
H          1.52758        1.53472       -1.71194
H          3.30634        1.47088       -1.87788
C          2.58438        2.31711        0.59641
H          1.68814        2.86682        0.29720
H          2.60999        2.26035        1.68742
H          3.47180        2.86455        0.24624
C          3.68357        0.16069        0.47324
H          3.70535        0.12160        1.56509
H          3.56384       -0.85486        0.09220
H          4.62797        0.59098        0.10904
