26
1sa1ma1eda_109.log	Energy: -619046.2085651
S         -1.86087       -0.16447       -0.02420
O         -2.13378        0.82576        1.01265
O         -1.64272        0.35958       -1.38189
O         -0.77715       -1.11655        0.37458
O         -3.21484       -1.06083       -0.10225
H         -3.20016       -1.53773       -0.94244
H         -0.06651        1.95312        0.84781
H          1.44572        2.46359        1.61823
H          1.35531        3.03684       -0.77569
H          2.75585        2.05115       -0.34618
H          0.33251        0.83359       -1.52078
H          1.66577        1.26416       -2.36497
H          1.14868        0.33347        2.38212
H          0.42860       -0.24392        0.99293
C          1.01205        1.77987        0.88489
C          1.66530        2.02581       -0.47160
N          1.20541        0.37899        1.36784
N          1.34203        0.98764       -1.44428
H          2.10523       -0.06858        1.02424
N          3.08249       -1.07562       -0.04232
H          2.75034       -0.54479       -0.85259
C          2.46213       -2.40829       -0.05482
H          2.77539       -3.02570       -0.90535
H          2.70904       -2.93960        0.86853
H          1.37604       -2.28847       -0.10272
H          4.09375       -1.14069       -0.08014
