23
1sa1a1eda_16.log	Energy: -594390.5358518
S          1.17162       -0.32524        0.12430
O          0.21419        0.67752       -0.47559
O          1.83699        0.20016        1.31801
O          0.49763       -1.62731        0.26955
O          2.29720       -0.56102       -0.98411
H          3.05937        0.07520       -0.81541
H         -3.29475       -1.32168        0.80713
H         -1.79858       -0.56178        1.40069
H         -3.73783        1.03199        1.55017
H         -2.48865        1.60739        0.44054
H         -5.07767        0.47985       -0.32365
H         -4.32793        1.81902       -0.88750
H         -1.45762       -1.66050       -0.71161
H         -2.59219       -0.59819       -1.42237
C         -2.57156       -0.51964        0.63178
C         -3.25581        0.84020        0.58328
N         -1.91203       -0.74548       -0.67433
N         -4.17306        0.87412       -0.55809
H         -1.06875       -0.05595       -0.74640
N          4.22867        1.14317       -0.16214
H          5.16650        0.77900       -0.03734
H          3.76985        1.18775        0.74708
H          4.29351        2.08103       -0.54136
