23
1sa1a1eda_21.log	Energy: -594391.4095897
S         -1.46242       -0.69454        0.08485
O         -2.46324       -1.72157        0.31437
O         -0.75159       -0.22075        1.30359
O         -0.52430       -0.88517       -1.03338
O         -2.32380        0.64431       -0.40911
H         -3.22563        0.53126       -0.08243
H          3.38477        1.16135       -0.26174
H          2.88543        1.09204        1.45120
H          3.95157       -1.04757        0.62452
H          2.31044       -1.28547        1.23507
H          3.10147       -2.13326       -1.16934
H          1.55615       -1.61677       -0.94663
H          1.03994        1.98651       -0.03077
H          1.10809        0.53370       -0.83965
C          2.71246        0.68222        0.45332
C          2.89808       -0.83550        0.42216
N          1.32207        0.98805        0.05775
N          2.53532       -1.34144       -0.89616
H          0.61980        0.55793        0.71496
N         -0.44844        3.17150       -0.27237
H         -0.48924        3.74900       -1.10604
H         -0.67319        3.76746        0.51810
H         -1.19347        2.47486       -0.34604
