26
1sa1ma1eda_27.log	Energy: -619047.9728883
S         -1.49515       -0.67958        0.00058
O         -0.40017       -1.41629        0.64307
O         -2.15741        0.33584        0.83019
O         -1.09066       -0.14326       -1.33050
O         -2.61279       -1.82329       -0.29603
H         -3.45017       -1.37499       -0.47402
H          2.40758        2.56323       -0.22533
H          1.61271        2.38056       -1.81115
H          0.41156        4.02152       -0.23903
H         -0.60040        2.68991       -0.80983
H          0.07708        3.23238        1.87408
H         -0.85936        1.99230        1.29152
H          2.08414        0.10616       -0.64187
H          1.07253        0.71301        0.53611
C          1.50082        2.22891       -0.73565
C          0.25758        2.93992       -0.17605
N          1.31591        0.79057       -0.46245
N          0.02413        2.48942        1.19197
H          0.47058        0.42513       -0.96831
N          2.45479       -1.74628       -0.45716
H          1.47000       -1.98452       -0.31961
C          3.20216       -2.08407        0.75888
H          3.15882       -3.14853        1.02054
H          4.25094       -1.79855        0.63937
H          2.78778       -1.51898        1.59791
H          2.78978       -2.29383       -1.24307
