32
1sa1eda1tma_39.log	Energy: -668364.5247039
S         -2.19655       -0.72676       -0.06385
O         -2.84463       -1.41332       -1.17218
O         -0.80570       -1.09248        0.23703
O         -2.35564        0.76204       -0.10745
O         -3.00070       -1.18881        1.28370
H         -3.91610       -1.35513        1.02375
H          4.54979       -1.69795       -0.23681
H          4.30157       -1.11963        1.41637
H          2.62517       -2.80994        0.81114
H          1.86354       -1.25679        1.14360
H          2.22209       -2.43514       -1.49675
H          0.86242       -1.84951       -0.77848
H          4.65748        0.70536       -0.15126
H          3.29720        0.26348       -0.95126
C          3.87551       -1.10753        0.40722
C          2.50798       -1.78286        0.43433
N          3.74266        0.28155       -0.03716
N          1.86651       -1.71365       -0.87825
N         -0.03080        1.97157        0.00001
C          0.69717        1.53960        1.22153
H          0.25086        2.03022        2.08741
H          0.57137        0.46092        1.30497
H          1.75766        1.78233        1.12390
C          0.65610        1.51633       -1.23472
H          0.88019        0.45135       -1.14530
H         -0.00899        1.68903       -2.08210
H          1.58325        2.08229       -1.35266
C         -0.28738        3.42706       -0.01967
H         -0.82489        3.67929       -0.93449
H         -0.89979        3.69122        0.84320
H          0.66337        3.96415        0.01740
H         -0.98286        1.48128        0.00577
