26
1sa1ma1eda_60.log	Energy: -619048.6324572
S         -1.10658       -1.21738       -0.14777
O         -1.45337       -2.57230       -0.54477
O          0.01102       -1.14589        0.83872
O         -0.94216       -0.21734       -1.21368
O         -2.41364       -0.63536        0.67202
H         -2.79297       -1.37369        1.16616
H          1.42154        0.14352       -1.33517
H          2.39504        1.62389       -1.32466
H          3.70928       -0.57599       -1.21660
H          4.14147        0.64323       -0.01464
H          2.24345       -1.51474        0.63992
H          3.83490       -1.47231        1.07932
H          0.56560        1.88079        0.13879
H          0.82986        0.34407        0.81989
C          2.11098        0.74577       -0.73943
C          3.34706       -0.04924       -0.32049
N          1.32491        1.18971        0.44079
N          3.03953       -0.90456        0.81560
H          1.92084        1.57264        1.17171
N         -0.86329        2.61066       -0.47414
H         -0.83587        3.43115       -1.07044
C         -1.85746        2.77663        0.59585
H         -2.85308        3.04084        0.22144
H         -1.94784        1.83184        1.13690
H         -1.52770        3.55335        1.29170
H         -1.12555        1.80697       -1.04958
