24
1sa1ma1dma_01.log	Energy: -584316.9441799
S         -1.72596       -0.16889       -0.13796
O         -2.78545       -0.77407       -0.92943
O         -0.65177       -1.05077        0.34838
O         -1.15987        1.07823       -0.73472
O         -2.42996        0.32361        1.26180
H         -3.33734        0.57733        1.04893
N          1.43013        1.13357       -0.10582
C          1.46930        1.21578        1.36814
C          2.19874        2.17874       -0.80064
H          1.76066        0.16621       -0.39855
H          1.07083        2.17987        1.68918
H          0.84134        0.41460        1.76012
H          2.49834        1.10255        1.71634
H          1.81105        3.16129       -0.52570
H          3.25320        2.10840       -0.52525
H          2.09048        2.03822       -1.87653
H          0.41167        1.16993       -0.40205
N          1.98536       -1.54106       -0.69728
H          0.97825       -1.71432       -0.66137
C          2.63328       -2.24881        0.41237
H          2.52932       -3.33876        0.35418
H          3.69853       -2.00240        0.44206
H          2.17751       -1.92015        1.34960
H          2.33166       -1.87825       -1.58941
