30
1sa1dma1tma_21.log	Energy: -633628.2193858
S         -0.45597        1.63488       -0.08164
O          0.62569        2.36951       -0.72356
O         -0.14417        0.90783        1.15344
O         -1.54078        2.76059        0.40010
O         -1.21817        0.75792       -1.03202
H         -1.47082        3.50319       -0.21374
H         -1.36178       -0.64076       -0.42727
N          3.02000       -1.21678        0.05493
C          3.13104       -0.27795        1.16744
C          2.83267       -0.53621       -1.22050
H          3.85872       -1.78549        0.01029
H          2.18747        0.26539        1.27894
H          3.32163       -0.82756        2.09412
H          3.93257        0.46786        1.03115
H          1.89396        0.02648       -1.20329
H          3.63116        0.18691       -1.45648
H          2.78171       -1.27299       -2.02872
N         -1.45038       -1.63654       -0.02659
C         -2.12919       -1.51269        1.28513
H         -1.52654       -0.85544        1.91180
H         -3.11047       -1.06195        1.13068
H         -2.23534       -2.50355        1.73426
C         -2.24515       -2.41921       -0.99596
H         -3.21956       -1.94531       -1.12035
H         -1.72425       -2.42699       -1.95382
H         -2.36938       -3.44125       -0.62944
C         -0.06742       -2.15693        0.11799
H          0.41404       -2.16226       -0.85940
H          0.49355       -1.49120        0.77111
H         -0.10060       -3.16876        0.52965
