24
1sa1ma1dma_06.log	Energy: -584317.1202804
S          1.53075       -0.12692       -0.04579
O          1.15539       -0.91836        1.13548
O          0.69447       -0.45658       -1.22673
O          1.65574        1.31304        0.22545
O          3.00772       -0.62312       -0.52163
H          3.65293       -0.21261        0.06902
N         -1.71852       -0.84054       -0.06975
C         -1.82598       -1.92155        0.92932
C         -2.81652       -0.79069       -1.04991
H         -1.63916        0.10808        0.42169
H         -1.86936       -2.88513        0.41810
H         -0.93610       -1.87987        1.55794
H         -2.73217       -1.77746        1.52153
H         -2.87603       -1.74019       -1.58500
H         -3.76079       -0.60151       -0.53519
H         -2.61612        0.01244       -1.75995
H         -0.79904       -0.90005       -0.57443
N         -1.25020        1.71824        0.89962
H         -1.71907        2.14444        1.69252
C         -1.36913        2.56739       -0.29482
H         -0.95773        3.57266       -0.15271
H         -0.81589        2.09452       -1.11019
H         -2.42141        2.65648       -0.58180
H         -0.25764        1.64428        1.13392
