29
1sa1dma1eda_96.log	Energy: -643703.3522460
S         -1.93507       -0.51855       -0.00539
O         -2.36592        0.87927       -0.03885
O         -1.53606       -1.11727       -1.28861
O         -0.92363       -0.79067        1.05949
O         -3.25445       -1.37571        0.41674
H         -3.77726       -0.82350        1.01272
H          2.42852       -0.70898       -1.76673
H          1.42692        0.40248       -0.77066
H          3.76723        0.24364        0.11871
H          2.57545       -0.35957        1.27066
H          4.38373       -2.01085       -0.33244
H          4.08003       -2.08081        1.27171
H          0.33089       -1.76062       -1.25050
H          1.56955       -2.51202       -0.33735
C          1.98699       -0.54424       -0.77935
C          3.05231       -0.56720        0.30721
N          1.03858       -1.65441       -0.51032
N          3.65876       -1.89980        0.36863
H          0.42529       -1.41852        0.31656
N          0.39772        2.22459       -0.15954
C          0.71821        3.47707       -0.82211
C          0.67510        2.24995        1.26841
H         -0.58689        2.00049       -0.29232
H          1.79960        3.65484       -0.77449
H          0.43222        3.42055       -1.87591
H          0.21744        4.35186       -0.37237
H          1.75834        2.32338        1.43424
H          0.20187        3.09961        1.78956
H          0.30760        1.32367        1.71849
