23
1sa1a1eda_29.log	Energy: -594391.4982398
S          1.57751       -0.11279       -0.09561
O          0.66214       -0.73003       -1.06106
O          1.80036        1.32952       -0.26450
O          1.25520       -0.47939        1.31273
O          3.00200       -0.83309       -0.41205
H          3.68742       -0.34386        0.06199
H         -1.06108       -1.68027        0.18807
H         -2.40811       -1.91630        1.31909
H         -3.28218       -1.69884       -0.89104
H         -3.76460       -0.25505        0.00325
H         -1.33258       -0.22315       -1.65514
H         -2.81366        0.21090       -2.24227
H         -0.38278       -0.25157        1.66448
H         -1.37163        0.89147        0.96518
C         -1.92971       -1.20208        0.64549
C         -2.90181       -0.76857       -0.44137
N         -1.39901       -0.07014        1.46419
N         -2.25784        0.12323       -1.39980
H         -1.91311        0.05042        2.33284
N         -1.00476        2.34866        0.22526
H         -1.49560        2.14826       -0.64522
H         -0.00043        2.30631        0.03087
H         -1.23903        3.28189        0.54434
