26
1sa1ma1eda_46.log	Energy: -619049.5823152
S         -1.64322       -0.25461       -0.00646
O         -0.98387       -0.03964       -1.30513
O         -0.99855       -1.31293        0.80750
O         -1.90091        0.99065        0.73205
O         -3.09296       -0.92181       -0.31995
H         -3.60907       -0.27797       -0.82322
H          3.46603       -0.67747        0.79133
H          2.63901       -2.15910        1.34585
H          2.97059       -2.18747       -1.08582
H          1.24975       -2.18509       -0.68579
H          2.39696       -0.45859       -2.39403
H          1.02011       -0.12706       -1.57055
H          1.62914       -0.31663        2.39488
H          1.38983        0.58879        1.00128
C          2.53094       -1.24204        0.75938
C          2.16061       -1.57066       -0.68358
N          1.47360       -0.41288        1.39362
N          2.00949       -0.35094       -1.46556
H          0.51939       -0.84254        1.25397
N          0.82928        2.20573        0.73043
H         -0.16973        2.09173        0.92117
C          0.99469        2.71841       -0.63889
H          0.68282        3.76478       -0.74131
H          2.03761        2.61769       -0.94717
H          0.38257        2.10861       -1.30498
H          1.19288        2.87636        1.40102
