29
1sa1dma1eda_01.log	Energy: -643714.3388073
S          1.91277        0.05923       -0.03322
O          3.28153        0.54974       -0.07458
O          1.13373        0.12450       -1.27868
O          2.03427       -1.56343        0.23667
O          1.11745        0.55958        1.12665
H          2.87635       -1.71203        0.68553
H         -0.36299        1.22419        0.61556
H         -0.27437       -2.36283        0.02370
H         -1.63207       -3.23145        0.72329
H         -2.18287       -2.73105       -1.53258
H         -3.21873       -1.73254       -0.49376
H         -0.73194       -0.70497       -1.70203
H         -2.22887       -0.48911       -2.34409
H         -1.73695       -1.65495        2.29144
H         -0.44620       -0.88372        1.64416
C         -1.30992       -2.24666        0.36365
C         -2.18708       -1.88320       -0.83174
N         -1.37338       -1.24907        1.43832
N         -1.72777       -0.64445       -1.47505
N         -1.22869        1.56873        0.13808
C         -0.84928        2.64746       -0.79403
C         -2.25097        1.93884        1.13053
H         -1.55191        0.72278       -0.42559
H         -0.44227        3.49080       -0.23315
H         -0.08937        2.25461       -1.47078
H         -1.72991        2.96858       -1.35478
H         -1.86633        2.72704        1.78084
H         -3.14563        2.29440        0.61467
H         -2.48378        1.04431        1.70871
