29
1sa1dma1eda_02.log	Energy: -643714.7437015
S         -1.76598       -0.13211        0.07185
O         -1.54047       -1.47568        0.62256
O         -1.26230        0.08946       -1.28860
O         -3.37961        0.02185       -0.09711
O         -1.35751        0.94380        1.01508
H         -3.78926       -0.30548        0.71456
H          0.25530        1.35392        0.63738
H          3.16718       -1.86296        0.32907
H          2.01648       -3.14946        0.71695
H          1.79680       -2.75068       -1.60520
H          0.35127       -2.11118       -0.81832
H          2.43671       -0.60958       -2.14177
H          0.80260       -0.39999       -2.10949
H          0.49440       -1.34448        1.44450
H          1.88126       -1.34481        2.31151
C          2.09680       -2.09256        0.41747
C          1.42635       -1.95612       -0.94446
N          1.49959       -1.17335        1.38705
N          1.61806       -0.62281       -1.54249
N          1.12793        1.61012        0.11883
C          2.17692        2.05579        1.04893
C          0.75702        2.59705       -0.91449
H          1.42213        0.71409       -0.36519
H          1.83361        2.93804        1.59259
H          2.37704        1.23540        1.73704
H          3.08101        2.30124        0.48719
H          0.41146        3.51431       -0.43475
H          1.62568        2.81072       -1.54140
H         -0.05051        2.16651       -1.50809
