24
1sa1ma1dma_20.log	Energy: -584315.0517845
S          1.60464       -0.10395       -0.05761
O          1.22649       -1.42533       -0.58199
O          1.09191        0.20201        1.28620
O          3.21746       -0.14439        0.15005
O          1.33803        0.99336       -1.02435
H          3.60527       -0.52878       -0.64735
H         -0.21795        1.68447       -0.47328
N         -1.71724       -0.99326       -0.12238
C         -2.82197       -1.36157       -1.00318
C         -1.84581       -1.54699        1.22747
H         -0.83209       -1.33062       -0.51202
H         -3.75604       -0.93855       -0.61780
H         -2.64531       -0.95614       -2.00271
H         -2.95075       -2.45003       -1.08633
H         -2.71627       -1.10399        1.72466
H         -1.97354       -2.63812        1.21949
H         -0.94340       -1.30073        1.79229
N         -1.02462        1.63061        0.18471
H         -1.41178        0.61756        0.04405
C         -2.03206        2.68790        0.01072
H         -2.81960        2.56956        0.75601
H         -1.57134        3.67008        0.12146
H         -2.46608        2.60351       -0.98599
H         -0.57442        1.62225        1.10357
