21
1sa1a1dma_06.log	Energy: -559658.3108518
S         -0.72674       -0.44349       -0.14640
O         -1.84552       -1.37410       -0.02908
O          0.24847       -0.73984       -1.22730
O         -1.32947        0.98404       -0.56765
O         -0.00597       -0.21013        1.14612
H         -2.26145        1.06183       -0.19321
H          1.58862        0.05351        0.80360
N          2.36806        0.13670        0.09014
C          3.55158       -0.65459        0.46201
C          2.61645        1.56265       -0.19556
H          1.83835       -0.29017       -0.70760
H          3.99586       -0.24006        1.36858
H          3.24022       -1.68328        0.64406
H          4.28158       -0.62897       -0.34901
H          3.03624        2.04220        0.69022
H          3.31114        1.65380       -1.03232
H          1.66317        2.02695       -0.45108
N         -3.83160        0.78792        0.43867
H         -4.62728        1.02117       -0.14463
H         -4.02102        1.10389        1.38332
H         -3.72103       -0.22545        0.45333
