32
1sa1eda1tma_42.log	Energy: -668365.5110986
S          1.55718       -1.13073       -0.04948
O          1.22371       -2.53767       -0.22560
O          1.44161       -0.55792        1.29553
O          3.16234       -1.00904       -0.37050
O          0.90449       -0.23766       -1.06103
H          3.37615       -1.69984       -1.01085
H          0.42863        1.08226       -0.31465
H         -3.06700       -1.42120       -1.60505
H         -1.44106       -0.70683       -1.63209
H         -1.58788       -2.41070        0.09914
H         -1.29303       -0.83409        0.80913
H         -3.88033       -2.20263        0.79971
H         -3.00555       -1.70860        2.08189
H         -3.35804        0.91232       -1.67758
H         -3.63789        0.49304       -0.12277
C         -2.36564       -0.77418       -1.05221
C         -2.04462       -1.43039        0.28370
N         -2.91034        0.57332       -0.83183
N         -3.24725       -1.47795        1.12481
N          0.28456        2.04699        0.11562
C          1.64510        2.53041        0.45186
H          2.08453        1.83092        1.16356
H          2.24548        2.54300       -0.45854
H          1.57605        3.53456        0.87723
C         -0.37360        2.87422       -0.92125
H          0.25068        2.87580       -1.81592
H         -1.34317        2.41906       -1.13389
H         -0.49667        3.89349       -0.54613
C         -0.56527        1.90484        1.32375
H         -1.54070        1.53584        1.00245
H         -0.08488        1.18606        1.98801
H         -0.66200        2.88158        1.80549
