23
1sa1a1eda_52.log	Energy: -594388.8779523
S          1.73261       -0.08430        0.00057
O          3.13364       -0.40098       -0.21467
O          0.88800        0.06978       -1.20853
O          1.07385       -1.42850        0.69098
O          1.47384        1.01113        0.96929
H          1.77356       -1.85817        1.19956
H          0.23914        2.13338        0.35302
H         -1.05091        0.07077        1.11233
H         -2.54858       -0.24355        1.97410
H         -1.64567       -2.20848        0.67961
H         -3.30861       -1.77533        0.22757
H         -0.90993       -1.03232       -1.30039
H         -2.15177       -1.99242       -1.78706
H         -2.98640        0.65850       -0.67488
H         -3.60499        1.29641        0.71706
C         -2.11810       -0.13687        0.97442
C         -2.26366       -1.44281        0.19156
N         -2.75108        0.99585        0.26178
N         -1.91254       -1.19854       -1.20548
N         -0.45240        2.31932       -0.40560
H         -1.43229        2.00026       -0.10321
H         -0.11822        1.66576       -1.13589
H         -0.42908        3.28429       -0.71830
