26
1sa1ma1eda_29.log	Energy: -619049.8070439
S         -1.80506        0.32742        0.07360
O         -2.97135        1.18279        0.21238
O         -0.65890        0.85368       -0.68440
O         -1.35374       -0.30503        1.34775
O         -2.28534       -0.94127       -0.86397
H         -3.22098       -1.09397       -0.67907
H          2.81026       -1.84199        0.70718
H          1.43108       -2.66587        1.47944
H          1.44929       -3.04251       -0.92593
H         -0.00998       -2.17955       -0.43884
H          1.46655       -1.40869       -2.45783
H          0.69264       -0.32110       -1.51307
H          1.58089       -0.52933        2.39223
H          1.78843        0.24609        0.91463
C          1.72059       -1.85892        0.80105
C          1.07617       -2.07869       -0.56469
N          1.30268       -0.56880        1.41396
N          1.43085       -1.02792       -1.51975
H          0.24720       -0.44535        1.38046
N          2.70132        1.35236       -0.02300
H          3.69035        1.48627        0.16286
C          2.02459        2.64553       -0.20563
H          2.45243        3.24466       -1.01832
H          0.97005        2.45788       -0.41720
H          2.09097        3.22072        0.72171
H          2.62445        0.77568       -0.86279
