29
1sa1dma1eda_49.log	Energy: -643710.3739765
S         -0.33388       -1.58565        0.10905
O         -0.16513       -2.92802       -0.41573
O         -1.52084       -1.34807        0.95801
O          0.89992       -1.26753        1.10193
O         -0.22551       -0.51887       -0.95624
H          1.71238       -1.05587        0.54334
H         -1.32949        0.63574       -0.60318
H          1.15883        1.65410       -0.99979
H          2.17852        2.95074       -0.37943
H          3.64933        1.41184       -1.38525
H          3.84633        1.15848        0.35535
H          2.19937       -0.53650       -1.39626
H          3.64294       -0.94685       -0.73132
H          1.03155        0.80806        1.27741
H          1.87047        2.10819        1.80858
C          1.90156        1.90078       -0.23186
C          3.14639        1.04007       -0.47986
N          1.25571        1.77979        1.07083
N          2.80862       -0.38603       -0.59296
N         -2.13947        1.06610       -0.06931
C         -3.39374        0.80575       -0.80316
C         -1.88130        2.47912        0.27212
H         -2.10882        0.44338        0.75742
H         -3.36057        1.32367       -1.76274
H         -3.47729       -0.26936       -0.96236
H         -4.24230        1.16364       -0.21753
H         -1.89496        3.06919       -0.64652
H         -2.65954        2.83811        0.94844
H         -0.89369        2.54034        0.74195
