18
1sa1a1ma_03.log	Energy: -534994.1218303
S          1.24067       -0.00419       -0.05334
O          2.68614        0.04073       -0.19042
O          0.42511        0.32124       -1.23453
O          0.86847       -1.58690        0.20930
O          0.71574        0.70472        1.15495
H          1.63644       -1.99469        0.62970
H         -0.54597        1.57135        0.71519
N         -2.41173       -0.36555       -0.65382
H         -3.19785       -0.52488       -1.27547
C         -2.47487       -1.26105        0.51126
H         -2.47138       -2.32203        0.23966
H         -1.60344       -1.07593        1.14348
H         -3.38026       -1.04697        1.08572
H         -1.55464       -0.54487       -1.18086
N         -1.38239        2.00121        0.20624
H         -1.91386        2.63098        0.79915
H         -1.96429        1.15812       -0.14907
H         -1.01105        2.49445       -0.60291
