30
1sa1dma1tma_18.log	Energy: -633630.2301395
S         -2.02464       -0.54204       -0.06965
O         -1.91175        0.25199        1.16303
O         -3.34264       -0.59757       -0.68578
O         -0.90120       -0.22529       -1.00452
O         -1.67577       -2.09162        0.35132
H         -2.52134       -2.54585        0.45707
N          2.73607       -1.06151       -0.42622
C          1.75252       -2.00915        0.09460
C          4.05498       -1.23896        0.16518
H          2.80079       -1.18517       -1.43163
H          1.58227       -1.81109        1.15874
H          0.80045       -1.87470       -0.42058
H          2.07362       -3.05909       -0.00209
H          3.99908       -1.02506        1.23862
H          4.45593       -2.26008        0.05197
H          4.76501       -0.53587       -0.28041
N          0.50439        1.77347       -0.02345
C          1.55773        2.10179       -1.01009
H          2.24091        1.25162       -1.05700
H          1.08901        2.26613       -1.98127
H          2.08438        3.00492       -0.69078
C         -0.50727        2.85004        0.10256
H         -0.95611        3.02276       -0.87644
H         -1.27597        2.51028        0.79682
H         -0.02146        3.76045        0.46242
C          1.07979        1.40055        1.29212
H          0.26753        1.03257        1.91958
H          1.81629        0.61481        1.11768
H          1.55357        2.27966        1.73704
H         -0.01873        0.91696       -0.39609
