29
1sa1dma1eda_17.log	Energy: -643711.0253439
S          2.01182       -0.50480       -0.14115
O          3.09999       -1.29958       -0.68798
O          1.27756       -1.03866        1.00957
O          2.73234        0.85294        0.48243
O          1.08216        0.04714       -1.17266
H          3.60941        0.90609        0.08234
H         -0.05733        0.94603       -0.48946
H         -4.02111       -1.68202       -0.44544
H         -3.26961       -0.83520       -1.80711
H         -1.85927       -2.70535       -0.90294
H         -1.03609       -1.15591       -0.88730
H         -2.00515       -2.59899        1.43007
H         -0.62010       -1.73933        1.19985
H         -4.14908        0.70453       -0.14246
H         -3.14791        0.03405        0.97970
C         -3.18746       -1.02370       -0.73198
C         -1.85725       -1.71462       -0.42780
N         -3.24724        0.25831       -0.01067
N         -1.62203       -1.75707        1.01509
N         -0.75455        1.60819       -0.04081
C         -0.66004        2.90361       -0.73643
C         -0.46470        1.67652        1.40924
H         -1.71263        1.18375       -0.16342
H          0.34623        3.30530       -0.60752
H         -0.85160        2.74882       -1.79860
H         -1.39308        3.60061       -0.32463
H          0.57344        1.97961        1.55272
H         -1.14333        2.39273        1.87846
H         -0.60481        0.68048        1.82992
