29
1sa1dma1eda_111.log	Energy: -643701.9509546
S          1.58404        0.80687       -0.06488
O          1.20638        1.23527       -1.41007
O          2.23169       -0.50252        0.05922
O          2.71865        1.85935        0.44189
O          0.46080        0.94126        0.91808
H          2.53887        2.70375        0.00830
H         -0.01250       -0.49862        1.34340
H         -1.67014       -2.93729        0.82045
H         -2.02794       -1.23183        0.34985
H         -1.08214       -2.72383       -1.53045
H         -0.18384       -1.23790       -1.24909
H          0.82608       -3.84250       -1.02352
H          1.60118       -2.41981       -0.67072
H         -0.67193       -1.60223        2.45845
H          0.55480       -2.09264        1.42359
C         -1.24591       -1.99116        0.47301
C         -0.43890       -2.20840       -0.81093
N         -0.29575       -1.51609        1.51824
N          0.76714       -2.97659       -0.50609
N         -3.04279        0.70784       -0.11321
C         -2.38646        0.98371       -1.38877
C         -2.81042        1.76879        0.86224
H         -4.04123        0.60825       -0.26637
H         -1.30553        1.05659       -1.23551
H         -2.58151        0.16618       -2.09021
H         -2.72022        1.92598       -1.85411
H         -1.73686        1.83565        1.06025
H         -3.15548        2.75830        0.51716
H         -3.32648        1.53143        1.79769
