26
1sa1ma1eda_19.log	Energy: -619050.3729997
S          1.72765        0.21589       -0.00712
O          1.54052       -0.44609        1.29372
O          1.31288       -0.66224       -1.13972
O          1.19763        1.57470       -0.11198
O          3.33218        0.41589       -0.18412
H          3.75955       -0.41546        0.06079
H         -3.03026       -1.58480       -0.60989
H         -1.91311       -2.56326       -1.59149
H         -1.69245       -3.19071        0.73708
H         -0.19773       -2.43514        0.18394
H         -1.74434       -1.63634        2.34425
H         -0.38921       -0.92060        1.74460
H         -1.71511       -0.34753       -2.31512
H         -1.61244        0.33507       -0.75067
C         -1.97679       -1.78419       -0.82603
C         -1.24515       -2.23616        0.43751
N         -1.38036       -0.53807       -1.37363
N         -1.32739       -1.24540        1.50937
H         -0.32828       -0.60494       -1.39994
N         -1.74752        1.58714        0.27160
H         -1.92350        1.06398        1.12721
C         -2.65511        2.72326        0.11815
H         -2.57731        3.45522        0.93113
H         -2.43686        3.23709       -0.82161
H         -3.68844        2.36726        0.07494
H         -0.76943        1.88478        0.30630
