29
1sa1dma1eda_62.log	Energy: -643707.4509559
S          0.46996       -0.23777        0.07518
O          1.13130       -0.57778       -1.18474
O          0.07600        1.19229        0.18074
O         -0.70356       -1.11566        0.40244
O          1.49264       -0.53575        1.25524
H          2.43568       -0.25622        0.96090
H         -3.61835        1.70461       -0.81044
H         -2.36531        0.59615       -1.41395
H         -4.64726       -0.37896       -1.76058
H         -3.68379       -1.35096       -0.64403
H         -5.89051        0.42262        0.09333
H         -5.60021       -1.11479        0.56836
H         -1.83090        1.41417        0.78390
H         -3.25451        0.66206        1.38350
C         -3.15751        0.72191       -0.67362
C         -4.19422       -0.39010       -0.76114
N         -2.52981        0.67006        0.66439
N         -5.15663       -0.23579        0.33163
H         -1.89149       -0.20516        0.70582
N          3.89938        0.15148        0.38897
C          3.75379        1.41272       -0.34284
C          4.33461       -0.95214       -0.47040
H          4.56232        0.27515        1.14826
H          2.98063        1.28313       -1.10413
H          3.42462        2.19520        0.34447
H          4.68924        1.72476       -0.82996
H          3.55198       -1.13698       -1.21032
H          5.28118       -0.73440       -0.98650
H          4.45560       -1.85553        0.13218
