29
1sa1dma1eda_92.log	Energy: -643704.6358668
S          0.27457       -0.63075       -0.28528
O          1.33477       -1.28703       -1.02923
O         -0.90235       -1.38373        0.10555
O          0.86909        0.01936        1.01209
O         -0.15882        0.61917       -1.15008
H          1.90830        0.27505        0.86767
H         -0.92815        1.14244       -0.69762
H         -2.92488       -0.21311       -1.06987
H         -4.48060        0.58877       -0.77689
H         -3.73268        1.44216        1.35913
H         -2.33463        0.35150        1.36548
H         -2.65339        2.51464       -0.59920
H         -1.69215        2.57444        0.71773
H         -4.81715       -1.63704       -0.20882
H         -3.44023       -1.72540        0.66418
C         -3.65633        0.04995       -0.29252
C         -2.97790        0.96135        0.72578
N         -4.20451       -1.10855        0.40157
N         -2.10994        1.94148        0.04167
N          3.33461        0.56264        0.65135
C          3.49142        1.21338       -0.65726
C          4.06178       -0.71137        0.73856
H          3.66517        1.18950        1.38018
H          3.06754        0.55635       -1.41962
H          2.93536        2.15316       -0.66371
H          4.54513        1.41116       -0.89129
H          3.63599       -1.39826        0.00395
H          5.13421       -0.58465        0.54355
H          3.92258       -1.13975        1.73336
