21
1sa1a1dma_12.log	Energy: -559653.0113774
S         -1.57018       -0.04605        0.04734
O         -3.01099       -0.20216        0.15221
O         -0.84979        0.45055        1.23547
O         -0.97331       -1.57716       -0.10840
O         -1.10736        0.65581       -1.18458
H         -1.68076       -2.11701       -0.48379
H          0.16629        1.66397       -0.78134
N          2.71636       -0.00040       -0.05906
C          2.27993       -0.85149       -1.17416
C          2.44142       -0.61440        1.24747
H          3.71433        0.16959       -0.14292
H          1.19942       -1.00292       -1.10692
H          2.50517       -0.35725       -2.12270
H          2.76733       -1.83586       -1.15996
H          1.35962       -0.70958        1.37719
H          2.89722       -1.60902        1.34497
H          2.82889        0.03056        2.04074
N          0.89367        2.05030       -0.12065
H          1.14924        3.01037       -0.32562
H          1.72967        1.36960       -0.12256
H          0.41980        1.95389        0.78597
