24
1sa1ma1dma_29.log	Energy: -584308.8497389
S         -1.48250       -0.14771       -0.00575
O         -1.67239        1.11292       -0.72632
O         -0.98776       -0.06606        1.36626
O         -2.96680       -0.80337        0.13809
O         -0.69945       -1.14434       -0.81008
H         -3.47129       -0.54754       -0.64515
H          0.67719       -1.33997       -0.19964
N          1.69087       -1.55105        0.11604
C          2.03199       -0.75842        1.32348
C          2.57687       -1.27302       -1.03868
H          1.70370       -2.54478        0.34090
H          2.04364        0.28936        1.02422
H          1.25400       -0.90802        2.07066
H          3.01224       -1.06655        1.69387
H          2.48009       -0.20621       -1.25371
H          3.60864       -1.52549       -0.78539
H          2.23837       -1.86170       -1.89162
N          1.32078        1.90023       -0.74096
H          1.81306        2.45169       -1.43709
C          1.10998        2.70090        0.47072
H          0.61806        3.66574        0.28980
H          0.47928        2.13299        1.15990
H          2.07196        2.89284        0.95879
H          0.40770        1.67675       -1.13587
