26
1sa1ma1eda_97.log	Energy: -619045.6566103
S         -1.88852       -0.41819       -0.21180
O         -3.14233       -0.95165       -0.71391
O         -0.90030        0.06044       -1.18639
O         -2.28123        0.98970        0.57987
O         -1.25372       -1.25119        0.85194
H         -3.17201        0.87618        0.93520
H          0.12831       -0.58111        1.32814
H          3.11879       -0.25982        1.24714
H          2.25799       -1.77378        1.58154
H          1.12365       -1.57150       -0.67195
H          2.06001       -0.12303       -0.98719
H          3.16975       -2.81123       -0.66753
H          3.36580       -1.76751       -1.90326
H          1.09062        0.08371        2.54540
H          0.95139        0.88857        1.05024
C          2.20759       -0.82554        1.03850
C          2.08205       -1.08165       -0.46061
N          1.03571       -0.06595        1.54076
N          3.25861       -1.82688       -0.89761
N          0.63147        2.23804        0.05896
H          0.09070        1.71592       -0.63666
C          1.72801        2.98166       -0.56559
H          1.39360        3.69131       -1.33158
H          2.28361        3.53374        0.19731
H          2.42006        2.27773       -1.03649
H         -0.03176        2.87004        0.49772
