23
1sa1a1eda_12.log	Energy: -594391.7490372
S         -1.41236       -0.40517        0.03679
O         -1.06621       -1.73368       -0.48612
O         -0.73480       -0.05440        1.30882
O         -1.29229        0.67702       -0.95822
O         -2.97668       -0.48901        0.47642
H         -3.43400       -1.02194       -0.18753
H          3.56946        0.55459       -0.02672
H          2.91687        0.44397        1.63003
H          3.38102       -1.83868        0.55198
H          1.71315       -1.61617        1.09151
H          2.56114       -2.06241       -1.56497
H          1.01144       -1.86794       -1.00423
H          1.50720        1.96512        0.08497
H          1.28705        0.57471       -0.80441
C          2.72708        0.21280        0.57988
C          2.45719       -1.28451        0.35919
N          1.51445        0.92919        0.13652
N          1.95630       -1.48772       -0.99575
H          0.68825        0.65819        0.72746
N          0.15408        3.33466       -0.31961
H         -0.21216        3.85017        0.47472
H         -0.55757        2.64760       -0.58514
H          0.24637        3.99338       -1.08600
