26
1sa1ma1eda_33.log	Energy: -619047.7949793
S         -0.62051       -0.82581        0.22563
O         -1.72114       -1.36111        1.00606
O          0.54821       -1.64867       -0.03080
O         -1.16552       -0.36433       -1.18495
O         -0.18413        0.51752        0.90428
H         -2.15572       -0.06983       -1.07033
H          0.63932        0.97021        0.38391
H          3.87417        1.92552       -0.15409
H          2.97318        1.81885        1.37712
H          4.34621       -0.24273        0.86179
H          2.62652       -0.57343        1.08842
H          4.11948       -1.09200       -1.22765
H          2.51162       -1.36103       -0.95698
H          1.60732        2.57889       -0.53382
H          1.86610        1.10916       -1.23315
C          3.05929        1.40614        0.36699
C          3.35297       -0.09484        0.42357
N          1.78027        1.59766       -0.33799
N          3.25503       -0.67160       -0.91617
N         -3.63217        0.30272       -0.63836
H         -4.33189        0.36140       -1.37091
C         -3.60971        1.52489        0.17886
H         -4.57000        1.73761        0.66154
H         -2.84284        1.41301        0.94827
H         -3.33617        2.37252       -0.45375
H         -3.85565       -0.50116       -0.05601
