29
1sa1dma1eda_30.log	Energy: -643707.3021545
S         -0.41090       -1.06337       -0.17730
O          0.61993       -1.74503       -0.93715
O         -1.71106       -1.68327        0.00904
O          0.13656       -0.71644        1.25373
O         -0.61217        0.35105       -0.84557
H          1.17152       -0.50192        1.24089
H         -1.52927        0.77989       -0.53035
H          4.43510       -0.38809        0.11493
H          3.01080       -1.29290       -0.46227
H          3.40519        0.68254       -1.87433
H          1.86137        0.80014       -1.02814
H          4.29121        2.29137       -0.36456
H          2.77235        2.84938       -0.59565
H          3.08067       -0.85130        1.99180
H          2.83838        0.73795        1.62877
C          3.34193       -0.36083        0.00038
C          2.94534        0.81410       -0.88530
N          2.67732       -0.21767        1.30828
N          3.30968        2.07340       -0.22853
N         -2.87036        1.32844       -0.07579
C         -2.97833        1.11998        1.37408
C         -3.91600        0.62285       -0.82742
H         -2.92255        2.32322       -0.27684
H         -2.85750        0.05388        1.57818
H         -2.17193        1.65672        1.87843
H         -3.94544        1.45749        1.76955
H         -3.77992       -0.44998       -0.67460
H         -4.92480        0.91335       -0.50531
H         -3.80101        0.83597       -1.89242
