26
1sa1ma1eda_63.log	Energy: -619048.3755887
S          1.58640       -0.55668        0.02451
O          0.43851       -1.50825        0.07933
O          1.74204        0.05388       -1.30415
O          1.57159        0.37381        1.15521
O          2.91986       -1.45435        0.26766
H          3.09915       -1.94140       -0.54756
H         -3.16223       -0.63878        1.60898
H         -3.34009        1.00388        0.92967
H         -4.10765       -0.60709       -0.70306
H         -2.61282        0.12057       -1.29932
H         -2.86972       -2.42505       -1.37997
H         -1.47762       -1.92823       -0.66509
H         -1.15105        0.63238        2.00269
H         -0.77250       -0.52163        0.87387
C         -2.80980        0.05168        0.83987
C         -3.02664       -0.56322       -0.53872
N         -1.36707        0.31857        1.05881
N         -2.49362       -1.91433       -0.59099
H         -1.01432        1.06880        0.36499
N         -0.36810        2.14264       -0.77615
H          0.29807        1.54106       -1.26925
C          0.37624        3.19893       -0.07268
H          0.94617        3.84586       -0.74894
H         -0.31776        3.82056        0.50102
H          1.07329        2.71780        0.61670
H         -0.98664        2.54494       -1.47379
