29
1sa1dma1eda_105.log	Energy: -643702.8586659
S         -2.01368       -0.48276       -0.09294
O         -2.91404       -1.60299       -0.29881
O         -0.73209       -0.53760       -0.86125
O         -2.59635        0.86414       -0.14865
O         -1.43201       -0.65343        1.44850
H         -2.16006       -0.97725        1.99437
H          0.33993        3.56414        0.19737
H         -0.87827        2.35180        0.70870
H          1.36926        2.19239        1.97256
H          0.84794        0.70861        1.17598
H          3.12492        2.31284        0.47260
H          2.77185        0.71409        0.14127
H         -0.53882        2.48802       -1.74121
H          1.04662        1.94859       -1.44426
C          0.10572        2.49764        0.26121
C          1.20579        1.72643        0.99460
N          0.06694        1.95492       -1.12317
N          2.40512        1.67374        0.15994
H         -0.27585        0.93783       -1.09792
N          2.84123       -1.29778        0.03894
C          2.47118       -1.62156       -1.33818
C          1.98612       -1.98154        1.00943
H          3.80536       -1.57527        0.19604
H          1.43187       -1.32377       -1.50198
H          3.11326       -1.06948       -2.03108
H          2.55090       -2.69684       -1.56445
H          0.94891       -1.67173        0.85560
H          2.02678       -3.07888        0.91838
H          2.28431       -1.70381        2.02458
