23
1sa1a1eda_31.log	Energy: -594391.2439228
S          1.49021       -0.18905        0.05357
O          0.56933       -0.94795        0.95404
O          0.96237       -0.13278       -1.32085
O          1.91588        1.08728        0.62137
O          2.85459       -1.06848       -0.01261
H          2.68076       -1.84727       -0.55743
H         -3.35981       -0.26331        1.18285
H         -3.34503        1.14172        0.07927
H         -3.38751       -0.81401       -1.28034
H         -1.73410       -0.18822       -1.39925
H         -2.09213       -2.67074       -0.93821
H         -1.03201       -1.92274        0.06067
H         -1.71707        1.21476        1.97227
H         -0.80330        0.04695        1.18776
C         -2.77978        0.27350        0.42951
C         -2.45651       -0.67159       -0.72299
N         -1.53482        0.79252        1.06458
N         -2.01161       -1.96310       -0.21799
H         -1.09417        1.53538        0.42788
N         -0.29166        2.54627       -0.70087
H          0.59829        2.71755       -0.23301
H         -0.63454        3.41757       -1.09037
H         -0.05568        1.91139       -1.46395
