23
1sa1a1eda_27.log	Energy: -594391.0707735
S          0.85273       -0.45972        0.01192
O          0.49392       -0.71565       -1.39272
O          0.92949        0.98200        0.33981
O         -0.06646       -1.20763        0.93018
O          2.28272       -1.08378        0.31000
H          2.98480       -0.37290        0.16292
H         -4.09021       -0.02827       -0.28320
H         -3.47083       -0.73736        1.23379
H         -3.19154        1.79571        1.10749
H         -1.67334        0.92091        1.34661
H         -2.35244        2.51936       -0.89736
H         -0.90986        1.78858       -0.52095
H         -2.68096       -1.88688       -0.84352
H         -1.87358       -0.46827       -1.22445
C         -3.19643       -0.20215        0.32211
C         -2.47646        1.11753        0.62970
N         -2.25948       -1.04579       -0.45955
N         -1.91607        1.65694       -0.60297
H         -1.39158       -1.28841        0.13945
N          3.88613        1.05393       -0.01116
H          4.28400        1.23843       -0.92524
H          4.58428        1.26066        0.69412
H          3.08356        1.66674        0.12645
