26
1sa1ma1eda_36.log	Energy: -619048.5653677
S          1.46026       -0.98770       -0.02806
O          0.28315       -1.03841        0.89400
O          2.09918       -2.27648       -0.23693
O          1.16088       -0.16453       -1.20736
O          2.56362       -0.06109        0.77310
H          3.08077       -0.65219        1.33521
H         -1.93543        2.85597        0.33526
H         -1.32565        1.98071        1.76622
H          0.31926        3.67385        0.82427
H          0.96500        2.03233        0.88409
H          0.80951        3.58469       -1.37574
H          1.02664        1.94650       -1.35586
H         -2.33671        0.47050        0.03395
H         -1.08113        0.99879       -0.98666
C         -1.18064        2.15313        0.69712
C          0.22565        2.67406        0.38973
N         -1.37005        0.86801       -0.01097
N          0.42126        2.70788       -1.05708
H         -0.72706        0.12458        0.38483
N         -3.60915       -0.87390        0.15356
H         -3.83472       -1.05246        1.12771
C         -2.85424       -2.01143       -0.40393
H         -3.38384       -2.96759       -0.32591
H         -2.64557       -1.81767       -1.45911
H         -1.89414       -2.09698        0.11231
H         -4.49466       -0.76223       -0.33013
