30
1sa1dma1tma_08.log	Energy: -633634.3493877
S         -0.37171       -1.12035        0.17538
O          0.48192       -2.17503       -0.33286
O         -1.58037       -1.44937        0.91010
O          0.46893       -0.15666        1.09044
O         -0.74893       -0.20234       -1.05459
H          1.39102        0.09066        0.61909
H         -1.61303        0.36458       -0.83861
N         -2.88819        1.13740       -0.49105
C         -2.71370        1.72197        0.84424
C         -4.01192        0.19411       -0.55025
H         -3.03792        1.88139       -1.16688
H         -2.46535        0.92020        1.54332
H         -1.88235        2.43023        0.82497
H         -3.61952        2.23594        1.19247
H         -3.78963       -0.64367        0.11406
H         -4.95849        0.66076       -0.24668
H         -4.10933       -0.18999       -1.56805
N          2.67071        0.53953       -0.02800
C          2.36658        1.82241       -0.66420
H          1.57007        1.67659       -1.39764
H          2.01869        2.53038        0.09260
H          3.25024        2.24393       -1.16663
C          3.67294        0.68942        1.02797
H          3.30851        1.39384        1.77998
H          3.83781       -0.27734        1.50883
H          4.62916        1.05817        0.62665
C          3.08845       -0.45654       -1.02114
H          3.22444       -1.42233       -0.53186
H          2.30318       -0.57296       -1.77005
H          4.02574       -0.15447       -1.51267
