26
1sa1ma1eda_138.log	Energy: -619038.1703006
S          1.61547       -0.68433        0.00948
O          2.40876        0.50921        0.27783
O          1.06459       -1.40449        1.16606
O          0.55856       -0.46519       -1.03126
O          2.64209       -1.76669       -0.64919
H          3.27172       -1.27577       -1.19370
H         -2.65983       -0.67248        1.75676
H         -1.26432        0.30563        1.24618
H         -3.41165        1.29915        0.39878
H         -2.35938        0.78492       -0.91992
H         -4.77382       -0.60081       -0.02147
H         -4.30519       -0.22658       -1.54162
H         -0.94929       -2.06732        0.83823
H         -2.25528       -2.00277       -0.26654
C         -2.08824       -0.31685        0.89506
C         -2.97949        0.42038       -0.09539
N         -1.50374       -1.48908        0.20078
N         -3.96791       -0.51737       -0.63199
H         -0.76834       -1.13849       -0.49468
N          1.17319        3.35163       -0.15134
H          1.85374        2.60131       -0.06386
C         -0.15922        2.81234        0.06950
H         -0.33188        2.41126        1.08451
H         -0.91380        3.58444       -0.11921
H         -0.32022        1.99799       -0.64326
H          1.39902        4.05447        0.54350
